data_Molecule from HDF5

_cell_length_a		102.228155
_cell_length_b		13.360367
_cell_length_c		76.439200
_cell_angle_alpha	90.001933
_cell_angle_beta	90.005161
_cell_angle_gamma	90.003619
_symmetry_space_group_name_H-M	'P 1'
_symmetry_Int_Tables_number		1

loop_
	_symmetry_equiv_pos_as_xyz
	x,y,z

loop_
	_atom_site_label
	_atom_site_type_symbol
	_atom_site_fract_x
	_atom_site_fract_y
	_atom_site_fract_z
	Al0	Al	0.083375	-0.499954	0.083389
	Al1	Al	0.083356	-0.250144	0.083432
	Al2	Al	-0.000028	-0.250153	0.000095
	Al3	Al	-0.000072	-0.500329	0.000135
	O4	O	0.096838	-0.459693	0.099238
	O5	O	0.083356	-0.375082	0.072477
	O6	O	0.083379	-0.125174	0.094410
	O7	O	0.153223	-0.459609	0.150813
	O8	O	0.069900	-0.458989	0.099286
	O9	O	0.013574	-0.459279	0.150902
	O10	O	0.069840	-0.290890	0.099313
	O11	O	0.069875	-0.208902	0.067584
	O12	O	0.013529	-0.209392	0.015899
	O13	O	0.096804	-0.291257	0.099295
	O14	O	0.096777	-0.209344	0.067492
	O15	O	0.153163	-0.208954	0.016008
	O16	O	0.013465	-0.291072	0.150784
	O17	O	0.069756	-0.040865	0.067606
	O18	O	0.013428	-0.041270	0.016086
	O19	O	0.153153	-0.040973	0.015969
	O20	O	0.096735	-0.041273	0.067473
	O21	O	0.153109	-0.291267	0.150982
	O22	O	-0.000008	-0.124953	0.155809
	O23	O	0.166588	-0.375078	0.010937
	C24	C	0.130570	-0.286333	0.130229
	C25	C	0.136359	-0.375500	0.135477
	C26	C	0.130643	-0.464720	0.130259
	C27	C	0.119410	-0.464544	0.119975
	C28	C	0.113613	-0.375482	0.114753
	C29	C	0.119346	-0.286255	0.119945
	C30	C	0.101583	-0.375532	0.103551
	C31	C	0.148390	-0.375199	0.146672
	C32	C	0.065106	-0.374930	0.103519
	C33	C	0.053003	-0.374814	0.114634
	C34	C	0.047290	-0.285580	0.119921
	C35	C	0.036062	-0.285958	0.130223
	C36	C	0.030328	-0.375114	0.135430
	C37	C	0.036066	-0.464244	0.130193
	C38	C	0.047287	-0.463979	0.119898
	C39	C	0.018255	-0.375155	0.146573
	C40	C	0.065066	-0.125073	0.063335
	C41	C	0.053033	-0.125226	0.052134
	C42	C	0.047272	-0.036346	0.046888
	C43	C	0.036048	-0.036571	0.036638
	C44	C	0.030307	-0.125485	0.031422
	C45	C	0.036080	-0.214407	0.036627
	C46	C	0.047307	-0.214285	0.046905
	C47	C	0.018241	-0.125474	0.020251
	C48	C	0.101520	-0.125223	0.063212
	C49	C	0.113555	-0.125025	0.051993
	C50	C	0.119349	-0.213844	0.046839
	C51	C	0.130570	-0.213895	0.036606
	C52	C	0.136323	-0.124884	0.031394
	C53	C	0.130508	-0.035805	0.036486
	C54	C	0.119270	-0.035983	0.046730
	C55	C	0.148374	-0.124758	0.020188
	H56	H	0.134900	-0.283286	0.032588
	H57	H	0.115029	-0.282886	0.050890
	H58	H	0.134867	-0.217268	0.134290
	H59	H	0.115044	-0.217217	0.115932
	H60	H	0.083304	-0.375047	0.060542
	H61	H	0.083340	-0.124739	0.106368
	H62	H	0.000089	-0.124726	0.143920
	H63	H	0.166630	-0.375161	0.022934
	H64	H	0.051657	-0.283326	0.050937
	H65	H	0.031799	-0.283410	0.032600
	H66	H	0.031750	-0.216656	0.134271
	H67	H	0.051578	-0.216327	0.115913
	H68	H	0.031709	0.032498	0.032623
	H69	H	0.051560	0.032856	0.050940
	H70	H	0.051614	-0.533144	0.115886
	H71	H	0.031745	-0.533589	0.134218
	H72	H	0.115097	-0.533798	0.115919
	H73	H	0.135025	-0.533758	0.134280
	H74	H	0.114889	0.033099	0.050629
	H75	H	0.134790	0.033246	0.032363
	Al76	Al	0.083291	-0.000195	0.083448
	Al77	Al	0.083249	0.250060	0.083421
	Al78	Al	-0.000062	0.249969	0.000122
	Al79	Al	-0.000028	-0.000158	0.000148
	O80	O	0.096808	0.041492	0.099258
	O81	O	0.083248	0.124831	0.072493
	O82	O	0.083329	0.374986	0.094330
	O83	O	0.153145	0.041190	0.150818
	O84	O	0.069799	0.040774	0.099285
	O85	O	0.013469	0.040967	0.150871
	O86	O	0.069762	0.209064	0.099180
	O87	O	0.069832	0.291040	0.067496
	O88	O	0.013438	0.291088	0.016011
	O89	O	0.096745	0.209425	0.099333
	O90	O	0.096712	0.291124	0.067507
	O91	O	0.153166	0.290908	0.015992
	O92	O	0.013559	0.209108	0.150965
	O93	O	0.069850	0.459283	0.067509
	O94	O	0.013417	0.459102	0.016059
	O95	O	0.153151	0.459065	0.016007
	O96	O	0.096817	0.459113	0.067497
	O97	O	0.153135	0.209399	0.150877
	O98	O	0.000021	0.374893	0.155871
	O99	O	0.166613	0.125042	0.010963
	C100	C	0.130531	0.214732	0.130279
	C101	C	0.136381	0.125663	0.135316
	C102	C	0.130698	0.036493	0.129965
	C103	C	0.119499	0.036141	0.119708
	C104	C	0.113635	0.125223	0.114631
	C105	C	0.119320	0.214350	0.119994
	C106	C	0.101569	0.125632	0.103485
	C107	C	0.148390	0.125283	0.146579
	C108	C	0.065046	0.124963	0.103524
	C109	C	0.052992	0.124769	0.114671
	C110	C	0.047190	0.213935	0.119857
	C111	C	0.036005	0.213853	0.130140
	C112	C	0.030285	0.124720	0.135506
	C113	C	0.036074	0.035469	0.130317
	C114	C	0.047276	0.035470	0.120047
	C115	C	0.018257	0.124880	0.146662
	C116	C	0.065071	0.375316	0.063262
	C117	C	0.053036	0.375226	0.052084
	C118	C	0.047292	0.464174	0.046853
	C119	C	0.036069	0.464289	0.036593
	C120	C	0.030310	0.375266	0.031388
	C121	C	0.036037	0.286310	0.036661
	C122	C	0.047271	0.286224	0.046921
	C123	C	0.018226	0.375053	0.020262
	C124	C	0.101529	0.374862	0.063260
	C125	C	0.113538	0.374760	0.051992
	C126	C	0.119356	0.285685	0.046858
	C127	C	0.130589	0.285635	0.036618
	C128	C	0.136306	0.374745	0.031350
	C129	C	0.130521	0.463876	0.036508
	C130	C	0.119279	0.463757	0.046753
	C131	C	0.148391	0.375029	0.020208
	H132	H	0.134938	0.216814	0.032626
	H133	H	0.115122	0.216665	0.051034
	H134	H	0.134796	0.283549	0.134519
	H135	H	0.114909	0.283388	0.116063
	H136	H	0.083176	0.124945	0.060463
	H137	H	0.083365	0.375505	0.106321
	H138	H	-0.000065	0.374897	0.143923
	H139	H	0.166627	0.124970	0.023004
	H140	H	0.051578	0.217321	0.050927
	H141	H	0.031708	0.217280	0.032712
	H142	H	0.031609	0.282844	0.134122
	H143	H	0.051469	0.283004	0.115718
	H144	H	0.031742	0.533368	0.032647
	H145	H	0.051626	0.533309	0.050845
	H146	H	0.051643	-0.033322	0.116079
	H147	H	0.031802	-0.033519	0.134466
	H148	H	0.115221	-0.032994	0.115545
	H149	H	0.135077	-0.032536	0.133915
	H150	H	0.114960	0.532662	0.050765
	H151	H	0.134813	0.532725	0.032462
	Al152	Al	0.083414	-0.500217	0.250167
	Al153	Al	0.083327	-0.250045	0.250160
	Al154	Al	-0.000016	-0.249990	0.166680
	Al155	Al	0.000033	-0.500021	0.166749
	O156	O	0.096922	-0.459206	0.265967
	O157	O	0.083380	-0.375180	0.239263
	O158	O	0.083318	-0.125079	0.261119
	O159	O	0.153208	-0.458803	0.317516
	O160	O	0.069920	-0.459370	0.266071
	O161	O	0.013440	-0.459283	0.317543
	O162	O	0.069868	-0.291362	0.265990
	O163	O	0.069833	-0.209247	0.234221
	O164	O	0.013480	-0.209039	0.182516
	O165	O	0.096885	-0.290887	0.265979
	O166	O	0.096771	-0.209222	0.234197
	O167	O	0.153198	-0.209109	0.182749
	O168	O	0.013514	-0.291078	0.317522
	O169	O	0.069817	-0.041162	0.234323
	O170	O	0.013441	-0.040864	0.182668
	O171	O	0.153187	-0.040740	0.182694
	O172	O	0.096752	-0.041072	0.234258
	O173	O	0.153253	-0.290477	0.317431
	O174	O	0.000057	-0.124672	0.322464
	O175	O	0.166715	-0.374825	0.177663
	C176	C	0.130688	-0.285386	0.296725
	C177	C	0.136393	-0.374558	0.302116
	C178	C	0.130614	-0.463903	0.296971
	C179	C	0.119416	-0.464050	0.286735
	C180	C	0.113692	-0.374836	0.281365
	C181	C	0.119484	-0.285487	0.286495
	C182	C	0.101641	-0.375073	0.270242
	C183	C	0.148484	-0.374528	0.313202
	C184	C	0.065130	-0.375309	0.270279
	C185	C	0.053066	-0.375369	0.281460
	C186	C	0.047299	-0.286453	0.286631
	C187	C	0.036072	-0.286241	0.296948
	C188	C	0.030318	-0.375208	0.302146
	C189	C	0.036102	-0.464194	0.296992
	C190	C	0.047330	-0.464300	0.286714
	C191	C	0.018271	-0.375538	0.313290
	C192	C	0.065069	-0.125028	0.230018
	C193	C	0.053005	-0.125388	0.218831
	C194	C	0.047230	-0.036224	0.213684
	C195	C	0.035999	-0.035956	0.203379
	C196	C	0.030304	-0.124932	0.198012
	C197	C	0.036087	-0.214071	0.203187
	C198	C	0.047315	-0.214323	0.213480
	C199	C	0.018211	-0.124950	0.186873
	C200	C	0.101527	-0.125212	0.229948
	C201	C	0.113641	-0.125023	0.218858
	C202	C	0.119332	-0.214174	0.213535
	C203	C	0.130570	-0.214265	0.203321
	C204	C	0.136377	-0.125131	0.198151
	C205	C	0.130655	-0.035929	0.203406
	C206	C	0.119403	-0.036013	0.213618
	C207	C	0.148456	-0.124777	0.187020
	H208	H	0.134908	-0.283293	0.199289
	H209	H	0.114933	-0.283320	0.217477
	H210	H	0.135081	-0.216318	0.300667
	H211	H	0.115153	-0.216609	0.282344
	H212	H	0.083260	-0.374923	0.227277
	H213	H	0.083389	-0.124474	0.273161
	H214	H	-0.000086	-0.124722	0.310508
	H215	H	0.166886	-0.375139	0.189629
	H216	H	0.051634	-0.283561	0.217421
	H217	H	0.031805	-0.283033	0.199059
	H218	H	0.031757	-0.216973	0.300874
	H219	H	0.051636	-0.217547	0.282617
	H220	H	0.031645	0.033147	0.199487
	H221	H	0.051469	0.032595	0.217862
	H222	H	0.051682	-0.533329	0.282737
	H223	H	0.031822	-0.533205	0.301001
	H224	H	0.115037	-0.533027	0.282779
	H225	H	0.134974	-0.532881	0.301021
	H226	H	0.115091	0.033263	0.217612
	H227	H	0.135021	0.033232	0.199425
	Al228	Al	0.083335	-0.000196	0.250172
	Al229	Al	0.083385	0.250129	0.250079
	Al230	Al	0.000047	0.250067	0.166833
	Al231	Al	-0.000055	-0.000065	0.166769
	O232	O	0.096788	0.040622	0.265990
	O233	O	0.083388	0.124993	0.239191
	O234	O	0.083442	0.374943	0.261063
	O235	O	0.153239	0.040696	0.317523
	O236	O	0.069825	0.041069	0.265993
	O237	O	0.013596	0.041417	0.317701
	O238	O	0.069884	0.209057	0.265959
	O239	O	0.069924	0.291123	0.234195
	O240	O	0.013502	0.291397	0.182713
	O241	O	0.096877	0.208875	0.266013
	O242	O	0.096881	0.290932	0.234225
	O243	O	0.153229	0.291083	0.182616
	O244	O	0.013475	0.209373	0.317535
	O245	O	0.069929	0.458954	0.234327
	O246	O	0.013467	0.459360	0.182736
	O247	O	0.153203	0.459318	0.182576
	O248	O	0.096852	0.459042	0.234104
	O249	O	0.153231	0.209138	0.317427
	O250	O	-0.000056	0.374998	0.322495
	O251	O	0.166642	0.125204	0.177673
	C252	C	0.130634	0.213812	0.296855
	C253	C	0.136389	0.124601	0.302160
	C254	C	0.130646	0.035315	0.296940
	C255	C	0.119410	0.035281	0.286690
	C256	C	0.113651	0.124413	0.281419
	C257	C	0.119395	0.213874	0.286615
	C258	C	0.101560	0.124596	0.270278
	C259	C	0.148487	0.124848	0.313212
	C260	C	0.065078	0.125227	0.270224
	C261	C	0.053075	0.125504	0.281458
	C262	C	0.047259	0.214369	0.286553
	C263	C	0.036059	0.214373	0.296859
	C264	C	0.030357	0.125412	0.302234
	C265	C	0.036126	0.036544	0.297016
	C266	C	0.047326	0.036502	0.286724
	C267	C	0.018313	0.125458	0.313360
	C268	C	0.065140	0.375144	0.229977
	C269	C	0.053115	0.375317	0.218845
	C270	C	0.047267	0.464171	0.213738
	C271	C	0.036053	0.464197	0.203463
	C272	C	0.030345	0.375337	0.198131
	C273	C	0.036198	0.286372	0.203197
	C274	C	0.047424	0.286328	0.213469
	C275	C	0.018259	0.375455	0.187001
	C276	C	0.101600	0.375041	0.229834
	C277	C	0.113684	0.374844	0.218682
	C278	C	0.119508	0.285807	0.213564
	C279	C	0.130727	0.285975	0.203318
	C280	C	0.136392	0.375154	0.197975
	C281	C	0.130632	0.464296	0.203198
	C282	C	0.119421	0.463935	0.213449
	C283	C	0.148455	0.375222	0.186849
	H284	H	0.135138	0.217203	0.199375
	H285	H	0.115216	0.216772	0.217651
	H286	H	0.134982	0.282865	0.300776
	H287	H	0.115091	0.283326	0.282570
	H288	H	0.083519	0.124555	0.227204
	H289	H	0.083386	0.374747	0.273033
	H290	H	-0.000032	0.374649	0.310535
	H291	H	0.166557	0.126065	0.189555
	H292	H	0.051842	0.217331	0.217282
	H293	H	0.031914	0.217485	0.199057
	H294	H	0.031670	0.283438	0.300773
	H295	H	0.051500	0.283600	0.282349
	H296	H	0.031627	0.533166	0.199591
	H297	H	0.051516	0.533049	0.217877
	H298	H	0.051633	-0.032676	0.282659
	H299	H	0.031828	-0.032544	0.301073
	H300	H	0.115069	-0.033900	0.282729
	H301	H	0.134989	-0.034023	0.300910
	H302	H	0.115047	0.532879	0.217458
	H303	H	0.134923	0.533327	0.199178
	Al304	Al	0.083427	-0.499782	0.416719
	Al305	Al	0.083444	-0.250079	0.416760
	Al306	Al	0.000068	-0.249981	0.333331
	Al307	Al	-0.000028	-0.500186	0.333434
	O308	O	0.096918	-0.459229	0.432661
	O309	O	0.083460	-0.374721	0.405776
	O310	O	0.083426	-0.124967	0.427625
	O311	O	0.153340	-0.459349	0.484099
	O312	O	0.069959	-0.459246	0.432623
	O313	O	0.013504	-0.459099	0.483904
	O314	O	0.069977	-0.291059	0.432590
	O315	O	0.069932	-0.209493	0.400861
	O316	O	0.013561	-0.209861	0.349299
	O317	O	0.097014	-0.290909	0.432505
	O318	O	0.096892	-0.208786	0.400761
	O319	O	0.153299	-0.208805	0.349164
	O320	O	0.013555	-0.290849	0.483977
	O321	O	0.069898	-0.041083	0.400865
	O322	O	0.013512	-0.041565	0.349348
	O323	O	0.153299	-0.040754	0.349193
	O324	O	0.096952	-0.040762	0.400858
	O325	O	0.153336	-0.291183	0.484068
	O326	O	0.000059	-0.125160	0.488948
	O327	O	0.166681	-0.375035	0.344298
	C328	C	0.130736	-0.285978	0.463470
	C329	C	0.136489	-0.375066	0.468716
	C330	C	0.130721	-0.464069	0.463508
	C331	C	0.119496	-0.464107	0.453273
	C332	C	0.113745	-0.375078	0.448041
	C333	C	0.119530	-0.285960	0.453226
	C334	C	0.101718	-0.375186	0.436841
	C335	C	0.148541	-0.375297	0.479879
	C336	C	0.065176	-0.375086	0.436798
	C337	C	0.053133	-0.375208	0.447960
	C338	C	0.047334	-0.286187	0.453108
	C339	C	0.036089	-0.286227	0.463320
	C340	C	0.030347	-0.375171	0.468553
	C341	C	0.036132	-0.464132	0.463409
	C342	C	0.047365	-0.464194	0.453172
	C343	C	0.018316	-0.374995	0.479726
	C344	C	0.065172	-0.125121	0.396619
	C345	C	0.053095	-0.125145	0.385477
	C346	C	0.047343	-0.036000	0.380233
	C347	C	0.036124	-0.036115	0.369989
	C348	C	0.030358	-0.125419	0.364808
	C349	C	0.036104	-0.214436	0.370062
	C350	C	0.047333	-0.214289	0.380296
	C351	C	0.018288	-0.125523	0.353561
	C352	C	0.101669	-0.124863	0.396524
	C353	C	0.113751	-0.124751	0.385348
	C354	C	0.119405	-0.213673	0.379931
	C355	C	0.130625	-0.213792	0.369663
	C356	C	0.136481	-0.124835	0.364604
	C357	C	0.130765	-0.035857	0.369912
	C358	C	0.119534	-0.035770	0.380166
	C359	C	0.148585	-0.124831	0.353524
	H360	H	0.134895	-0.282439	0.365589
	H361	H	0.115054	-0.282553	0.383826
	H362	H	0.135043	-0.216655	0.467474
	H363	H	0.115234	-0.216784	0.449164
	H364	H	0.083396	-0.374064	0.393854
	H365	H	0.083528	-0.124661	0.439630
	H366	H	-0.000002	-0.125627	0.477009
	H367	H	0.166550	-0.375250	0.356219
	H368	H	0.051690	-0.283244	0.384353
	H369	H	0.031831	-0.283579	0.365944
	H370	H	0.031733	-0.217066	0.467265
	H371	H	0.051685	-0.217324	0.449043
	H372	H	0.031822	0.032919	0.365864
	H373	H	0.051644	0.033435	0.384278
	H374	H	0.051674	-0.533396	0.449149
	H375	H	0.031764	-0.533024	0.467404
	H376	H	0.115126	-0.533123	0.449251
	H377	H	0.135052	-0.533114	0.467613
	H378	H	0.115244	0.033007	0.384268
	H379	H	0.135129	0.033097	0.366012
	Al380	Al	0.083440	0.000039	0.416698
	Al381	Al	0.083368	0.250048	0.416667
	Al382	Al	0.000020	0.249932	0.333433
	Al383	Al	0.000055	-0.000017	0.333464
	O384	O	0.096920	0.041195	0.432538
	O385	O	0.083365	0.124930	0.405700
	O386	O	0.083374	0.375067	0.427642
	O387	O	0.153272	0.040835	0.484109
	O388	O	0.070030	0.040778	0.432669
	O389	O	0.013428	0.040921	0.483866
	O390	O	0.069878	0.208742	0.432516
	O391	O	0.069926	0.291406	0.400757
	O392	O	0.013480	0.291672	0.349288
	O393	O	0.096857	0.209190	0.432614
	O394	O	0.096922	0.291062	0.400857
	O395	O	0.153235	0.290998	0.349070
	O396	O	0.013558	0.209083	0.484094
	O397	O	0.069883	0.459838	0.400760
	O398	O	0.013489	0.459658	0.349310
	O399	O	0.153207	0.459206	0.349193
	O400	O	0.096955	0.459290	0.400881
	O401	O	0.153288	0.208977	0.484078
	O402	O	0.000050	0.375020	0.488913
	O403	O	0.166756	0.125428	0.344209
	C404	C	0.130684	0.213691	0.463484
	C405	C	0.136478	0.124557	0.468664
	C406	C	0.130730	0.035559	0.463399
	C407	C	0.119543	0.035952	0.453154
	C408	C	0.113734	0.125026	0.447969
	C409	C	0.119473	0.214021	0.453233
	C410	C	0.101671	0.125283	0.436828
	C411	C	0.148515	0.124880	0.479813
	C412	C	0.065181	0.124466	0.436814
	C413	C	0.053122	0.124428	0.447997
	C414	C	0.047323	0.213353	0.453115
	C415	C	0.036087	0.213443	0.463333
	C416	C	0.030322	0.124598	0.468579
	C417	C	0.036120	0.035667	0.463473
	C418	C	0.047364	0.035582	0.453260
	C419	C	0.018280	0.124968	0.479746
	C420	C	0.065127	0.375472	0.396540
	C421	C	0.053098	0.375272	0.385380
	C422	C	0.047309	0.464254	0.380247
	C423	C	0.036102	0.464189	0.369990
	C424	C	0.030343	0.375239	0.364711
	C425	C	0.036157	0.286162	0.369812
	C426	C	0.047375	0.286217	0.380078
	C427	C	0.018266	0.375756	0.353529
	C428	C	0.101662	0.375114	0.396578
	C429	C	0.113766	0.375090	0.385449
	C430	C	0.119456	0.285921	0.380110
	C431	C	0.130645	0.285876	0.369803
	C432	C	0.136422	0.374897	0.364604
	C433	C	0.130705	0.464041	0.369907
	C434	C	0.119528	0.463961	0.380201
	C435	C	0.148477	0.374925	0.353419
	H436	H	0.134955	0.217140	0.365695
	H437	H	0.115025	0.217141	0.384069
	H438	H	0.135037	0.282713	0.467520
	H439	H	0.115134	0.282936	0.449228
	H440	H	0.083412	0.125028	0.393725
	H441	H	0.083401	0.375077	0.439565
	H442	H	0.000054	0.374070	0.476985
	H443	H	0.166679	0.125422	0.356064
	H444	H	0.051725	0.217352	0.384041
	H445	H	0.031807	0.217494	0.365723
	H446	H	0.031755	0.282345	0.467304
	H447	H	0.051636	0.282265	0.449040
	H448	H	0.031726	0.533187	0.366050
	H449	H	0.051610	0.533204	0.384357
	H450	H	0.051728	-0.033358	0.449297
	H451	H	0.031809	-0.033053	0.467525
	H452	H	0.115250	-0.033029	0.449091
	H453	H	0.135064	-0.033434	0.467382
	H454	H	0.115172	0.533093	0.384144
	H455	H	0.135058	0.532907	0.365938
	Al456	Al	0.083357	-0.500080	0.583231
	Al457	Al	0.083347	-0.250251	0.583231
	Al458	Al	0.000072	-0.250042	0.499894
	Al459	Al	0.000086	-0.499961	0.499818
	O460	O	0.096809	-0.459063	0.599184
	O461	O	0.083385	-0.375143	0.572330
	O462	O	0.083328	-0.125255	0.594183
	O463	O	0.153128	-0.458693	0.650880
	O464	O	0.069875	-0.459308	0.599167
	O465	O	0.013503	-0.458819	0.650588
	O466	O	0.069885	-0.291303	0.599169
	O467	O	0.069803	-0.209624	0.567400
	O468	O	0.013506	-0.208980	0.515789
	O469	O	0.096822	-0.290887	0.599159
	O470	O	0.096812	-0.208852	0.567349
	O471	O	0.153239	-0.209177	0.515932
	O472	O	0.013471	-0.290737	0.650583
	O473	O	0.069885	-0.041372	0.567298
	O474	O	0.013526	-0.040738	0.515690
	O475	O	0.153279	-0.040844	0.515961
	O476	O	0.096795	-0.040661	0.567297
	O477	O	0.153152	-0.290756	0.650864
	O478	O	0.000086	-0.124967	0.655612
	O479	O	0.166807	-0.375027	0.510945
	C480	C	0.130674	-0.285590	0.629977
	C481	C	0.136376	-0.374669	0.635298
	C482	C	0.130507	-0.463761	0.630282
	C483	C	0.119302	-0.464140	0.619997
	C484	C	0.113659	-0.375097	0.614558
	C485	C	0.119464	-0.285821	0.619696
	C486	C	0.101630	-0.374894	0.603372
	C487	C	0.148419	-0.374740	0.646531
	C488	C	0.065118	-0.375265	0.603389
	C489	C	0.053022	-0.375047	0.614518
	C490	C	0.047308	-0.285724	0.619724
	C491	C	0.036065	-0.285581	0.629942
	C492	C	0.030284	-0.374694	0.635163
	C493	C	0.036035	-0.463962	0.630038
	C494	C	0.047284	-0.464204	0.619805
	C495	C	0.018204	-0.374660	0.646298
	C496	C	0.065077	-0.125333	0.563099
	C497	C	0.053022	-0.125497	0.551929
	C498	C	0.047336	-0.036219	0.546710
	C499	C	0.036106	-0.035711	0.536453
	C500	C	0.030315	-0.124612	0.531231
	C501	C	0.036024	-0.213846	0.536441
	C502	C	0.047255	-0.214330	0.546700
	C503	C	0.018256	-0.124693	0.520005
	C504	C	0.101593	-0.124667	0.563119
	C505	C	0.113661	-0.124963	0.551951
	C506	C	0.119419	-0.214107	0.546675
	C507	C	0.130609	-0.213994	0.536405
	C508	C	0.136418	-0.124725	0.531304
	C509	C	0.130664	-0.035646	0.536547
	C510	C	0.119463	-0.035730	0.546800
	C511	C	0.148490	-0.124909	0.520158
	H512	H	0.134959	-0.282843	0.532329
	H513	H	0.115069	-0.282948	0.550650
	H514	H	0.135034	-0.216537	0.633933
	H515	H	0.115212	-0.216894	0.615477
	H516	H	0.083526	-0.375050	0.560446
	H517	H	0.083228	-0.124913	0.606147
	H518	H	0.000366	-0.124374	0.643623
	H519	H	0.166839	-0.374833	0.522910
	H520	H	0.051535	-0.283137	0.550624
	H521	H	0.031669	-0.282596	0.532399
	H522	H	0.031718	-0.216130	0.633875
	H523	H	0.051628	-0.216772	0.615690
	H524	H	0.031836	0.033440	0.532429
	H525	H	0.051718	0.032799	0.550722
	H526	H	0.051609	-0.533491	0.615866
	H527	H	0.031706	-0.533030	0.634038
	H528	H	0.114968	-0.533282	0.616095
	H529	H	0.134759	-0.532529	0.634520
	H530	H	0.115138	0.033202	0.550863
	H531	H	0.135083	0.033424	0.532612
	Al532	Al	0.083365	-0.000080	0.583223
	Al533	Al	0.083418	0.249797	0.583242
	Al534	Al	0.000075	0.250158	0.499923
	Al535	Al	0.000026	0.000228	0.499827
	O536	O	0.096830	0.041029	0.599100
	O537	O	0.083298	0.124916	0.572270
	O538	O	0.083358	0.374796	0.594209
	O539	O	0.153164	0.041146	0.650899
	O540	O	0.069894	0.040610	0.599133
	O541	O	0.013558	0.040663	0.650636
	O542	O	0.069928	0.208805	0.599125
	O543	O	0.069884	0.290562	0.567374
	O544	O	0.013537	0.291011	0.515762
	O545	O	0.096869	0.209128	0.599203
	O546	O	0.096936	0.290802	0.567521
	O547	O	0.153234	0.291252	0.515845
	O548	O	0.013422	0.208909	0.650517
	O549	O	0.069941	0.458736	0.567359
	O550	O	0.013574	0.459228	0.515668
	O551	O	0.153288	0.459345	0.515927
	O552	O	0.096861	0.459289	0.567370
	O553	O	0.153219	0.209528	0.650758
	O554	O	0.000030	0.374736	0.655504
	O555	O	0.166681	0.125206	0.510924
	C556	C	0.130706	0.214273	0.629962
	C557	C	0.136405	0.125259	0.635349
	C558	C	0.130550	0.036081	0.630359
	C559	C	0.119360	0.035814	0.620058
	C560	C	0.113655	0.124873	0.614626
	C561	C	0.119520	0.214117	0.619674
	C562	C	0.101612	0.124922	0.603429
	C563	C	0.148403	0.125334	0.646587
	C564	C	0.065147	0.124812	0.603392
	C565	C	0.053060	0.125094	0.614524
	C566	C	0.047262	0.214501	0.619602
	C567	C	0.036015	0.214495	0.629833
	C568	C	0.030303	0.125305	0.635149
	C569	C	0.036117	0.036059	0.630081
	C570	C	0.047361	0.035907	0.619846
	C571	C	0.018258	0.124932	0.646347
	C572	C	0.065153	0.374806	0.563108
	C573	C	0.053091	0.375132	0.551950
	C574	C	0.047343	0.464086	0.546740
	C575	C	0.036125	0.464167	0.536486
	C576	C	0.030355	0.375287	0.531206
	C577	C	0.036114	0.286345	0.536407
	C578	C	0.047320	0.286320	0.546690
	C579	C	0.018306	0.375245	0.520003
	C580	C	0.101646	0.375219	0.563184
	C581	C	0.113681	0.375093	0.552000
	C582	C	0.119429	0.285912	0.546766
	C583	C	0.130657	0.285988	0.536463
	C584	C	0.136370	0.375257	0.531244
	C585	C	0.130607	0.464370	0.536462
	C586	C	0.119396	0.464420	0.546777
	C587	C	0.148476	0.375384	0.520108
	H588	H	0.134971	0.217063	0.532479
	H589	H	0.115157	0.216902	0.550797
	H590	H	0.135077	0.283550	0.633926
	H591	H	0.115194	0.283484	0.615530
	H592	H	0.083198	0.124764	0.560360
	H593	H	0.083306	0.375358	0.606075
	H594	H	0.000099	0.375038	0.643480
	H595	H	0.166498	0.125717	0.522886
	H596	H	0.051671	0.217355	0.550682
	H597	H	0.031789	0.217379	0.532325
	H598	H	0.031661	0.283659	0.633780
	H599	H	0.051585	0.283734	0.615538
	H600	H	0.031803	0.533189	0.532494
	H601	H	0.051689	0.532717	0.550811
	H602	H	0.051754	-0.033456	0.615996
	H603	H	0.031824	-0.033256	0.634220
	H604	H	0.114934	-0.033176	0.616208
	H605	H	0.134791	-0.032957	0.634597
	H606	H	0.115061	0.533484	0.550789
	H607	H	0.134914	0.533574	0.532436
	Al608	Al	0.083270	-0.500215	0.750110
	Al609	Al	0.083229	-0.250301	0.750055
	Al610	Al	-0.000005	-0.250005	0.666540
	Al611	Al	0.000052	-0.500055	0.666438
	O612	O	0.096753	-0.458729	0.765970
	O613	O	0.083187	-0.375288	0.739169
	O614	O	0.083242	-0.125157	0.761002
	O615	O	0.153067	-0.459288	0.817469
	O616	O	0.069809	-0.459200	0.766029
	O617	O	0.013395	-0.459031	0.817477
	O618	O	0.069776	-0.290872	0.766005
	O619	O	0.069754	-0.209149	0.734238
	O620	O	0.013479	-0.209615	0.682463
	O621	O	0.096720	-0.290724	0.766002
	O622	O	0.096672	-0.209176	0.734138
	O623	O	0.153096	-0.209227	0.682657
	O624	O	0.013371	-0.290866	0.817526
	O625	O	0.069778	-0.041086	0.734118
	O626	O	0.013430	-0.041343	0.682517
	O627	O	0.153142	-0.040820	0.682688
	O628	O	0.096718	-0.041080	0.734120
	O629	O	0.153141	-0.290848	0.817475
	O630	O	-0.000006	-0.124920	0.822534
	O631	O	0.166681	-0.375143	0.677680
	C632	C	0.130543	-0.285821	0.796791
	C633	C	0.136317	-0.374761	0.802027
	C634	C	0.130549	-0.463673	0.796848
	C635	C	0.119327	-0.463593	0.786618
	C636	C	0.113551	-0.374645	0.781368
	C637	C	0.119332	-0.285678	0.786532
	C638	C	0.101491	-0.374656	0.770199
	C639	C	0.148357	-0.374937	0.813187
	C640	C	0.065038	-0.375063	0.770257
	C641	C	0.052938	-0.374617	0.781395
	C642	C	0.047164	-0.285456	0.786609
	C643	C	0.035952	-0.285609	0.796869
	C644	C	0.030197	-0.374839	0.802087
	C645	C	0.035979	-0.463970	0.796903
	C646	C	0.047191	-0.463820	0.786652
	C647	C	0.018145	-0.375012	0.813271
	C648	C	0.065030	-0.125056	0.729854
	C649	C	0.053010	-0.125202	0.718629
	C650	C	0.047290	-0.036291	0.713323
	C651	C	0.036063	-0.036460	0.703044
	C652	C	0.030297	-0.125403	0.697871
	C653	C	0.036029	-0.214185	0.703169
	C654	C	0.047236	-0.214129	0.713427
	C655	C	0.018233	-0.125398	0.686728
	C656	C	0.101455	-0.125256	0.729835
	C657	C	0.113525	-0.125021	0.718717
	C658	C	0.119281	-0.214023	0.713489
	C659	C	0.130555	-0.214292	0.703270
	C660	C	0.136275	-0.125157	0.698055
	C661	C	0.130605	-0.036121	0.703399
	C662	C	0.119345	-0.036019	0.713632
	C663	C	0.148340	-0.125000	0.686925
	H664	H	0.134849	-0.283362	0.699294
	H665	H	0.114957	-0.283186	0.717450
	H666	H	0.134910	-0.216843	0.800791
	H667	H	0.115014	-0.216721	0.782497
	H668	H	0.083095	-0.375230	0.727183
	H669	H	0.083158	-0.125448	0.772940
	H670	H	0.000113	-0.124949	0.810598
	H671	H	0.166880	-0.375511	0.689621
	H672	H	0.051576	-0.283174	0.717452
	H673	H	0.031693	-0.283081	0.699185
	H674	H	0.031609	-0.216365	0.800978
	H675	H	0.051542	-0.216241	0.782623
	H676	H	0.031721	0.032107	0.698977
	H677	H	0.051638	0.032676	0.717297
	H678	H	0.051535	-0.532792	0.782653
	H679	H	0.031700	-0.532949	0.801007
	H680	H	0.114975	-0.532545	0.782615
	H681	H	0.134835	-0.532715	0.800955
	H682	H	0.115070	0.033320	0.717694
	H683	H	0.134992	0.033125	0.699518
	Al684	Al	0.083264	-0.000139	0.750013
	Al685	Al	0.083247	0.249791	0.750071
	Al686	Al	0.000020	0.250052	0.666534
	Al687	Al	-0.000007	0.000158	0.666512
	O688	O	0.096749	0.041044	0.765873
	O689	O	0.083327	0.124862	0.739090
	O690	O	0.083321	0.375012	0.761061
	O691	O	0.153066	0.040566	0.817431
	O692	O	0.069780	0.041105	0.765905
	O693	O	0.013423	0.040676	0.817646
	O694	O	0.069742	0.209137	0.765941
	O695	O	0.069806	0.291031	0.734194
	O696	O	0.013533	0.290626	0.682387
	O697	O	0.096723	0.209226	0.765963
	O698	O	0.096758	0.290925	0.734177
	O699	O	0.153061	0.290679	0.682627
	O700	O	0.013371	0.208826	0.817449
	O701	O	0.069759	0.459006	0.734298
	O702	O	0.013500	0.458702	0.682374
	O703	O	0.153085	0.458910	0.682622
	O704	O	0.096715	0.459196	0.734256
	O705	O	0.153133	0.208770	0.817368
	O706	O	-0.000064	0.374768	0.822477
	O707	O	0.166663	0.124979	0.677656
	C708	C	0.130555	0.214214	0.796766
	C709	C	0.136293	0.124970	0.801986
	C710	C	0.130486	0.036004	0.796825
	C711	C	0.119279	0.036070	0.786581
	C712	C	0.113536	0.125335	0.781346
	C713	C	0.119330	0.214327	0.786529
	C714	C	0.101489	0.125242	0.770171
	C715	C	0.148344	0.124819	0.813134
	C716	C	0.064968	0.125051	0.770156
	C717	C	0.052963	0.124836	0.781392
	C718	C	0.047187	0.213689	0.786667
	C719	C	0.035975	0.213720	0.796946
	C720	C	0.030206	0.124882	0.802126
	C721	C	0.035954	0.036051	0.796825
	C722	C	0.047179	0.035934	0.786555
	C723	C	0.018150	0.124831	0.813246
	C724	C	0.065024	0.375194	0.729930
	C725	C	0.052993	0.375137	0.718721
	C726	C	0.047192	0.464235	0.713526
	C727	C	0.035984	0.464006	0.703231
	C728	C	0.030265	0.374835	0.697916
	C729	C	0.036019	0.285730	0.703188
	C730	C	0.047223	0.285975	0.713485
	C731	C	0.018240	0.374828	0.686672
	C732	C	0.101485	0.375244	0.729934
	C733	C	0.113575	0.375324	0.718818
	C734	C	0.119225	0.286221	0.713436
	C735	C	0.130432	0.286175	0.703168
	C736	C	0.136274	0.375103	0.698037
	C737	C	0.130613	0.464253	0.703409
	C738	C	0.119394	0.464313	0.713660
	C739	C	0.148330	0.374848	0.686895
	H740	H	0.134669	0.217410	0.699055
	H741	H	0.114836	0.216954	0.717387
	H742	H	0.134949	0.283187	0.800722
	H743	H	0.115018	0.283412	0.782476
	H744	H	0.083534	0.125038	0.727162
	H745	H	0.083511	0.375241	0.773016
	H746	H	-0.000038	0.374273	0.810476
	H747	H	0.166641	0.124427	0.689751
	H748	H	0.051592	0.216889	0.717543
	H749	H	0.031706	0.216599	0.699152
	H750	H	0.031602	0.282647	0.800910
	H751	H	0.051529	0.282531	0.782625
	H752	H	0.031612	0.533039	0.699238
	H753	H	0.051499	0.533379	0.717600
	H754	H	0.051502	-0.032768	0.782430
	H755	H	0.031540	-0.032797	0.800748
	H756	H	0.114895	-0.032803	0.782605
	H757	H	0.134807	-0.032876	0.800881
	H758	H	0.115122	0.533398	0.717781
	H759	H	0.135012	0.533228	0.699443
	Al760	Al	0.083300	-0.500252	0.916792
	Al761	Al	0.083245	-0.250222	0.916716
	Al762	Al	-0.000065	-0.250174	0.833483
	Al763	Al	-0.000056	-0.500196	0.833416
	O764	O	0.096784	-0.459315	0.932651
	O765	O	0.083254	-0.375422	0.905839
	O766	O	0.083291	-0.125370	0.927747
	O767	O	0.153117	-0.458979	0.984072
	O768	O	0.069815	-0.459042	0.932619
	O769	O	0.013447	-0.459428	0.984251
	O770	O	0.069779	-0.290846	0.932595
	O771	O	0.069803	-0.209189	0.900796
	O772	O	0.013437	-0.209101	0.849364
	O773	O	0.096795	-0.291008	0.932579
	O774	O	0.096699	-0.209303	0.900827
	O775	O	0.153075	-0.209747	0.849262
	O776	O	0.013384	-0.291184	0.984112
	O777	O	0.069714	-0.040969	0.900902
	O778	O	0.013444	-0.040819	0.849376
	O779	O	0.153141	-0.041225	0.849354
	O780	O	0.096668	-0.040881	0.900909
	O781	O	0.153089	-0.290927	0.984198
	O782	O	-0.000044	-0.125096	0.989176
	O783	O	0.166611	-0.375128	0.844219
	C784	C	0.130558	-0.285611	0.963475
	C785	C	0.136300	-0.374848	0.968706
	C786	C	0.130580	-0.464036	0.963432
	C787	C	0.119381	-0.464246	0.953145
	C788	C	0.113604	-0.375062	0.947972
	C789	C	0.119352	-0.285802	0.953192
	C790	C	0.101533	-0.375343	0.936851
	C791	C	0.148344	-0.374829	0.979885
	C792	C	0.065047	-0.375171	0.936917
	C793	C	0.052981	-0.375169	0.948078
	C794	C	0.047200	-0.286120	0.953307
	C795	C	0.035979	-0.286201	0.963574
	C796	C	0.030224	-0.375172	0.968799
	C797	C	0.035986	-0.464223	0.963514
	C798	C	0.047196	-0.464092	0.953249
	C799	C	0.018144	-0.375381	0.979917
	C800	C	0.065041	-0.125117	0.896578
	C801	C	0.052997	-0.125032	0.885390
	C802	C	0.047242	-0.036069	0.880201
	C803	C	0.036008	-0.036367	0.869982
	C804	C	0.030253	-0.125217	0.864774
	C805	C	0.035961	-0.214196	0.870033
	C806	C	0.047215	-0.214019	0.880251
	C807	C	0.018217	-0.125152	0.853560
	C808	C	0.101458	-0.125064	0.896623
	C809	C	0.113496	-0.125010	0.885354
	C810	C	0.119290	-0.214283	0.880247
	C811	C	0.130520	-0.214227	0.869973
	C812	C	0.136235	-0.125213	0.864665
	C813	C	0.130471	-0.036038	0.869842
	C814	C	0.119247	-0.036000	0.880118
	C815	C	0.148342	-0.125394	0.853519
	H816	H	0.134912	-0.283193	0.866039
	H817	H	0.115004	-0.283395	0.884379
	H818	H	0.134901	-0.216678	0.967526
	H819	H	0.114969	-0.216710	0.949224
	H820	H	0.083139	-0.375487	0.893855
	H821	H	0.083539	-0.125822	0.939630
	H822	H	-0.000008	-0.124920	0.977132
	H823	H	0.166506	-0.374921	0.856163
	H824	H	0.051554	-0.282878	0.884262
	H825	H	0.031597	-0.283105	0.866061
	H826	H	0.031611	-0.217205	0.967556
	H827	H	0.051512	-0.217066	0.949275
	H828	H	0.031686	0.032638	0.865957
	H829	H	0.051578	0.032897	0.884165
	H830	H	0.051505	-0.532971	0.949164
	H831	H	0.031631	-0.533270	0.967468
	H832	H	0.115076	-0.533651	0.949097
	H833	H	0.134934	-0.533031	0.967414
	H834	H	0.114949	0.033072	0.884161
	H835	H	0.134823	0.032994	0.865807
	Al836	Al	0.083236	-0.000229	0.916833
	Al837	Al	0.083275	0.250009	0.916746
	Al838	Al	-0.000043	0.249797	0.833475
	Al839	Al	-0.000011	0.000018	0.833479
	O840	O	0.096737	0.040774	0.932668
	O841	O	0.083197	0.124768	0.905872
	O842	O	0.083351	0.374830	0.927702
	O843	O	0.153174	0.040475	0.984037
	O844	O	0.069822	0.041153	0.932725
	O845	O	0.013433	0.040720	0.984231
	O846	O	0.069772	0.209277	0.932632
	O847	O	0.069796	0.290850	0.900849
	O848	O	0.013461	0.291049	0.849263
	O849	O	0.096752	0.209017	0.932605
	O850	O	0.096791	0.290759	0.900826
	O851	O	0.153096	0.290685	0.849293
	O852	O	0.013421	0.209071	0.984186
	O853	O	0.069856	0.458843	0.900862
	O854	O	0.013425	0.459186	0.849337
	O855	O	0.153100	0.458953	0.849247
	O856	O	0.096760	0.458984	0.900885
	O857	O	0.153127	0.208709	0.984135
	O858	O	-0.000110	0.374687	0.989191
	O859	O	0.166619	0.125085	0.844248
	C860	C	0.130532	0.214209	0.963524
	C861	C	0.136300	0.124862	0.968686
	C862	C	0.130562	0.035654	0.963415
	C863	C	0.119318	0.035678	0.953204
	C864	C	0.113554	0.125042	0.948063
	C865	C	0.119302	0.214188	0.953316
	C866	C	0.101480	0.124916	0.936916
	C867	C	0.148382	0.124683	0.979852
	C868	C	0.065001	0.125191	0.936919
	C869	C	0.052932	0.125282	0.948013
	C870	C	0.047126	0.214340	0.953206
	C871	C	0.035907	0.214108	0.963468
	C872	C	0.030205	0.124957	0.968759
	C873	C	0.036001	0.036032	0.963565
	C874	C	0.047218	0.036127	0.953299
	C875	C	0.018181	0.125007	0.979924
	C876	C	0.065042	0.374870	0.896601
	C877	C	0.052958	0.374909	0.885452
	C878	C	0.047229	0.463998	0.880155
	C879	C	0.036003	0.464193	0.869925
	C880	C	0.030225	0.375078	0.864739
	C881	C	0.035909	0.285972	0.870085
	C882	C	0.047133	0.285872	0.880321
	C883	C	0.018194	0.375123	0.853503
	C884	C	0.101535	0.375059	0.896625
	C885	C	0.113563	0.375183	0.885388
	C886	C	0.119317	0.286100	0.880161
	C887	C	0.130512	0.286104	0.869918
	C888	C	0.136303	0.375174	0.864707
	C889	C	0.130549	0.464231	0.869937
	C890	C	0.119354	0.464343	0.880205
	C891	C	0.148355	0.374950	0.853497
	H892	H	0.134835	0.217061	0.865889
	H893	H	0.114938	0.217152	0.884141
	H894	H	0.134811	0.283210	0.967591
	H895	H	0.114955	0.283434	0.949346
	H896	H	0.083130	0.124937	0.893927
	H897	H	0.083516	0.374636	0.939703
	H898	H	-0.000238	0.374646	0.977136
	H899	H	0.166714	0.125539	0.856212
	H900	H	0.051438	0.216724	0.884361
	H901	H	0.031530	0.216985	0.866067
	H902	H	0.031583	0.283240	0.967499
	H903	H	0.051425	0.283319	0.949115
	H904	H	0.031715	0.533060	0.865833
	H905	H	0.051606	0.532808	0.884071
	H906	H	0.051546	-0.033041	0.949278
	H907	H	0.031692	-0.032965	0.967710
	H908	H	0.114984	-0.033450	0.949138
	H909	H	0.134919	-0.033575	0.967391
	H910	H	0.114986	0.532956	0.884271
	H911	H	0.134914	0.532985	0.865937
	Al912	Al	0.249920	-0.500242	0.083462
	Al913	Al	0.249959	-0.249993	0.083342
	Al914	Al	0.166606	-0.249818	0.000053
	Al915	Al	0.166596	-0.500069	-0.000003
	O916	O	0.263442	-0.459159	0.099273
	O917	O	0.250014	-0.375334	0.072453
	O918	O	0.250022	-0.125064	0.094280
	O919	O	0.319944	-0.458864	0.150656
	O920	O	0.236492	-0.458585	0.099283
	O921	O	0.180152	-0.458450	0.150815
	O922	O	0.236501	-0.290451	0.099237
	O923	O	0.236505	-0.209091	0.067446
	O924	O	0.180120	-0.209142	0.015833
	O925	O	0.263478	-0.291078	0.099271
	O926	O	0.263457	-0.209020	0.067491
	O927	O	0.319844	-0.208818	0.015798
	O928	O	0.180108	-0.290569	0.150835
	O929	O	0.236467	-0.040875	0.067566
	O930	O	0.180095	-0.040895	0.015901
	O931	O	0.319854	-0.040778	0.015851
	O932	O	0.263498	-0.040646	0.067430
	O933	O	0.319869	-0.290607	0.150739
	O934	O	0.166582	-0.125041	0.155783
	O935	O	0.333254	-0.375192	0.011019
	C936	C	0.297297	-0.285889	0.130062
	C937	C	0.303080	-0.374868	0.135264
	C938	C	0.297300	-0.464091	0.130070
	C939	C	0.286081	-0.464087	0.119855
	C940	C	0.280333	-0.374865	0.114620
	C941	C	0.286082	-0.285586	0.119841
	C942	C	0.268230	-0.375014	0.103488
	C943	C	0.315140	-0.374735	0.146427
	C944	C	0.231729	-0.374567	0.103531
	C945	C	0.219708	-0.374378	0.114722
	C946	C	0.213970	-0.285435	0.119978
	C947	C	0.202748	-0.285463	0.130258
	C948	C	0.196950	-0.374458	0.135388
	C949	C	0.202711	-0.463402	0.130193
	C950	C	0.213940	-0.463205	0.119943
	C951	C	0.184879	-0.374567	0.146590
	C952	C	0.231707	-0.124956	0.063306
	C953	C	0.219657	-0.124783	0.052102
	C954	C	0.213874	-0.035907	0.046896
	C955	C	0.202666	-0.035954	0.036605
	C956	C	0.196928	-0.124894	0.031329
	C957	C	0.202680	-0.213771	0.036588
	C958	C	0.213881	-0.213635	0.046886
	C959	C	0.184859	-0.124588	0.020138
	C960	C	0.268265	-0.125008	0.063215
	C961	C	0.280309	-0.124949	0.052067
	C962	C	0.286070	-0.213795	0.046779
	C963	C	0.297281	-0.213916	0.036530
	C964	C	0.303029	-0.124990	0.031314
	C965	C	0.297306	-0.036068	0.036647
	C966	C	0.286090	-0.035984	0.046921
	C967	C	0.315092	-0.124946	0.020138
	H968	H	0.301599	-0.282832	0.032505
	H969	H	0.281746	-0.282719	0.050869
	H970	H	0.301639	-0.216654	0.134065
	H971	H	0.281721	-0.216503	0.115846
	H972	H	0.250219	-0.375558	0.060427
	H973	H	0.249928	-0.125586	0.106251
	H974	H	0.166811	-0.124887	0.143759
	H975	H	0.333168	-0.374809	0.022912
	H976	H	0.218205	-0.282684	0.051007
	H977	H	0.198353	-0.282648	0.032553
	H978	H	0.198433	-0.216582	0.134359
	H979	H	0.218282	-0.216094	0.115989
	H980	H	0.198315	0.032956	0.032561
	H981	H	0.218176	0.032945	0.050992
	H982	H	0.218258	-0.532302	0.115947
	H983	H	0.198414	-0.532538	0.134237
	H984	H	0.281693	-0.533148	0.115828
	H985	H	0.301646	-0.533392	0.134119
	H986	H	0.281796	0.033002	0.050955
	H987	H	0.301717	0.032566	0.032675
	Al988	Al	0.250041	-0.000208	0.083375
	Al989	Al	0.249986	0.249832	0.083453
	Al990	Al	0.166639	0.249961	-0.000008
	Al991	Al	0.166633	0.000185	0.000022
	O992	O	0.263530	0.041168	0.099277
	O993	O	0.249895	0.124939	0.072489
	O994	O	0.249927	0.374835	0.094391
	O995	O	0.319875	0.041196	0.150763
	O996	O	0.236555	0.040796	0.099369
	O997	O	0.180046	0.040587	0.150761
	O998	O	0.236554	0.208690	0.099336
	O999	O	0.236458	0.290806	0.067598
	O1000	O	0.180156	0.291130	0.015740
	O1001	O	0.263484	0.209195	0.099228
	O1002	O	0.263471	0.290657	0.067593
	O1003	O	0.319724	0.290842	0.015804
	O1004	O	0.180045	0.208564	0.150665
	O1005	O	0.236491	0.459167	0.067504
	O1006	O	0.180118	0.459290	0.015833
	O1007	O	0.319769	0.458988	0.015880
	O1008	O	0.263434	0.458760	0.067620
	O1009	O	0.319966	0.209095	0.150635
	O1010	O	0.166770	0.375452	0.155780
	O1011	O	0.333360	0.125185	0.010913
	C1012	C	0.297377	0.214549	0.130001
	C1013	C	0.303091	0.125370	0.135302
	C1014	C	0.297260	0.036305	0.130142
	C1015	C	0.286012	0.036158	0.119946
	C1016	C	0.280300	0.125216	0.114656
	C1017	C	0.286123	0.214306	0.119795
	C1018	C	0.268257	0.125311	0.103475
	C1019	C	0.315165	0.125043	0.146428
	C1020	C	0.231770	0.124777	0.103561
	C1021	C	0.219723	0.124636	0.114774
	C1022	C	0.213919	0.213652	0.119937
	C1023	C	0.202674	0.213755	0.130180
	C1024	C	0.196921	0.124789	0.135391
	C1025	C	0.202742	0.035882	0.130251
	C1026	C	0.213988	0.035700	0.120031
	C1027	C	0.184818	0.124505	0.146520
	C1028	C	0.231713	0.374895	0.063279
	C1029	C	0.219641	0.375053	0.052116
	C1030	C	0.213887	0.464166	0.046887
	C1031	C	0.202663	0.464299	0.036610
	C1032	C	0.196929	0.375088	0.031326
	C1033	C	0.202712	0.285852	0.036490
	C1034	C	0.213921	0.285845	0.046793
	C1035	C	0.184891	0.375419	0.020064
	C1036	C	0.268246	0.374854	0.063367
	C1037	C	0.280292	0.374702	0.052191
	C1038	C	0.286016	0.285874	0.046858
	C1039	C	0.297230	0.286187	0.036552
	C1040	C	0.302983	0.375036	0.031364
	C1041	C	0.297253	0.463863	0.036684
	C1042	C	0.286050	0.463565	0.046982
	C1043	C	0.315017	0.374947	0.020149
	H1044	H	0.301590	0.217366	0.032466
	H1045	H	0.281714	0.216833	0.050836
	H1046	H	0.301764	0.283589	0.133903
	H1047	H	0.281839	0.283298	0.115637
	H1048	H	0.249683	0.125435	0.060546
	H1049	H	0.249876	0.374550	0.106414
	H1050	H	0.166710	0.375494	0.143799
	H1051	H	0.333379	0.125374	0.022836
	H1052	H	0.218319	0.216574	0.050714
	H1053	H	0.198420	0.216810	0.032383
	H1054	H	0.198352	0.283065	0.134191
	H1055	H	0.218203	0.282610	0.115880
	H1056	H	0.198347	0.533484	0.032571
	H1057	H	0.218249	0.533482	0.050898
	H1058	H	0.218331	-0.033439	0.116084
	H1059	H	0.198403	-0.033119	0.134334
	H1060	H	0.281657	-0.032928	0.115968
	H1061	H	0.301601	-0.032718	0.134194
	H1062	H	0.281728	0.532419	0.051027
	H1063	H	0.301582	0.532971	0.032676
	Al1064	Al	0.250065	-0.499852	0.250002
	Al1065	Al	0.250043	-0.250101	0.249882
	Al1066	Al	0.166599	-0.249864	0.166791
	Al1067	Al	0.166691	-0.499684	0.166708
	O1068	O	0.263559	-0.458859	0.265865
	O1069	O	0.250010	-0.375076	0.239005
	O1070	O	0.249964	-0.125096	0.260817
	O1071	O	0.319909	-0.458983	0.317442
	O1072	O	0.236564	-0.458893	0.265825
	O1073	O	0.180143	-0.458984	0.317348
	O1074	O	0.236571	-0.290836	0.265780
	O1075	O	0.236597	-0.208601	0.233913
	O1076	O	0.180095	-0.209040	0.182534
	O1077	O	0.263606	-0.290710	0.265760
	O1078	O	0.263479	-0.209248	0.233951
	O1079	O	0.319964	-0.209062	0.182544
	O1080	O	0.180244	-0.291049	0.317475
	O1081	O	0.236561	-0.040387	0.234042
	O1082	O	0.180079	-0.040695	0.182611
	O1083	O	0.319904	-0.041025	0.182566
	O1084	O	0.263540	-0.041171	0.234127
	O1085	O	0.319880	-0.290948	0.317322
	O1086	O	0.166863	-0.124945	0.322309
	O1087	O	0.333435	-0.374736	0.177467
	C1088	C	0.297355	-0.286012	0.296674
	C1089	C	0.303053	-0.375156	0.302014
	C1090	C	0.297275	-0.464270	0.296815
	C1091	C	0.286078	-0.464132	0.286568
	C1092	C	0.280335	-0.374936	0.281326
	C1093	C	0.286147	-0.285721	0.286429
	C1094	C	0.268327	-0.374753	0.270089
	C1095	C	0.315096	-0.375087	0.313188
	C1096	C	0.231808	-0.374939	0.270093
	C1097	C	0.219782	-0.375026	0.281283
	C1098	C	0.214041	-0.285885	0.286585
	C1099	C	0.202831	-0.286082	0.296843
	C1100	C	0.197065	-0.375229	0.302044
	C1101	C	0.202789	-0.464316	0.296689
	C1102	C	0.213988	-0.464158	0.286435
	C1103	C	0.184967	-0.375130	0.313158
	C1104	C	0.231836	-0.124459	0.229741
	C1105	C	0.219725	-0.124599	0.218647
	C1106	C	0.213932	-0.035489	0.213470
	C1107	C	0.202680	-0.035645	0.203259
	C1108	C	0.196959	-0.124814	0.197967
	C1109	C	0.202787	-0.213854	0.203130
	C1110	C	0.214001	-0.213792	0.213378
	C1111	C	0.184847	-0.124963	0.186845
	C1112	C	0.268277	-0.125224	0.229786
	C1113	C	0.280324	-0.125097	0.218611
	C1114	C	0.286006	-0.214061	0.213211
	C1115	C	0.297224	-0.214085	0.202989
	C1116	C	0.303107	-0.125095	0.197967
	C1117	C	0.297406	-0.035943	0.203289
	C1118	C	0.286191	-0.036133	0.213532
	C1119	C	0.315140	-0.125100	0.186813
	H1120	H	0.301487	-0.283252	0.198826
	H1121	H	0.281568	-0.283468	0.217084
	H1122	H	0.301694	-0.216827	0.300667
	H1123	H	0.281883	-0.216704	0.282262
	H1124	H	0.249874	-0.375592	0.227059
	H1125	H	0.249995	-0.124919	0.272870
	H1126	H	0.166971	-0.124935	0.310313
	H1127	H	0.333346	-0.374654	0.189505
	H1128	H	0.218381	-0.282838	0.217224
	H1129	H	0.198481	-0.283008	0.199098
	H1130	H	0.198464	-0.217125	0.300881
	H1131	H	0.218411	-0.216416	0.282601
	H1132	H	0.198290	0.033403	0.199345
	H1133	H	0.218299	0.033483	0.217474
	H1134	H	0.218318	-0.533201	0.282386
	H1135	H	0.198399	-0.533654	0.300573
	H1136	H	0.281758	-0.533209	0.282548
	H1137	H	0.301594	-0.533380	0.300881
	H1138	H	0.281944	0.032638	0.217686
	H1139	H	0.301796	0.033313	0.199398
	Al1140	Al	0.250088	0.000171	0.249930
	Al1141	Al	0.250109	0.250126	0.249983
	Al1142	Al	0.166642	0.250191	0.166662
	Al1143	Al	0.166637	0.000106	0.166753
	O1144	O	0.263496	0.040771	0.265944
	O1145	O	0.250062	0.125062	0.239050
	O1146	O	0.250090	0.375117	0.260960
	O1147	O	0.319892	0.040754	0.317472
	O1148	O	0.236645	0.041014	0.265901
	O1149	O	0.180177	0.041205	0.317310
	O1150	O	0.236536	0.209325	0.265835
	O1151	O	0.236592	0.291030	0.234104
	O1152	O	0.180145	0.290773	0.182570
	O1153	O	0.263591	0.208789	0.265791
	O1154	O	0.263513	0.291213	0.234044
	O1155	O	0.319867	0.290733	0.182476
	O1156	O	0.180205	0.209477	0.317284
	O1157	O	0.236569	0.459115	0.234156
	O1158	O	0.180158	0.458996	0.182590
	O1159	O	0.320011	0.458906	0.182605
	O1160	O	0.263554	0.459320	0.234125
	O1161	O	0.319909	0.208890	0.317449
	O1162	O	0.166686	0.375065	0.322374
	O1163	O	0.333374	0.125229	0.177475
	C1164	C	0.297424	0.213878	0.296595
	C1165	C	0.303106	0.124809	0.301986
	C1166	C	0.297287	0.035541	0.296887
	C1167	C	0.286086	0.035651	0.286633
	C1168	C	0.280358	0.124705	0.281295
	C1169	C	0.286217	0.213842	0.286321
	C1170	C	0.268323	0.124602	0.270081
	C1171	C	0.315127	0.124823	0.313226
	C1172	C	0.231859	0.125026	0.270118
	C1173	C	0.219793	0.124932	0.281345
	C1174	C	0.214032	0.214027	0.286541
	C1175	C	0.202788	0.213957	0.296739
	C1176	C	0.197043	0.124888	0.301968
	C1177	C	0.202745	0.035635	0.296679
	C1178	C	0.213997	0.035811	0.286478
	C1179	C	0.184952	0.125326	0.313072
	C1180	C	0.231780	0.375105	0.229904
	C1181	C	0.219712	0.374855	0.218756
	C1182	C	0.213921	0.463950	0.213543
	C1183	C	0.202703	0.464082	0.203318
	C1184	C	0.196971	0.374914	0.198026
	C1185	C	0.202785	0.285775	0.203164
	C1186	C	0.214001	0.285659	0.213441
	C1187	C	0.184917	0.374988	0.186866
	C1188	C	0.268315	0.375269	0.229798
	C1189	C	0.280350	0.375408	0.218591
	C1190	C	0.286047	0.286525	0.213245
	C1191	C	0.297277	0.286620	0.203006
	C1192	C	0.303136	0.375469	0.197920
	C1193	C	0.297429	0.464585	0.203259
	C1194	C	0.286186	0.464340	0.213479
	C1195	C	0.315173	0.374994	0.186755
	H1196	H	0.301515	0.217591	0.198869
	H1197	H	0.281672	0.217590	0.217156
	H1198	H	0.301855	0.282831	0.300491
	H1199	H	0.281926	0.283162	0.282165
	H1200	H	0.249995	0.124991	0.227106
	H1201	H	0.250079	0.375617	0.272919
	H1202	H	0.166625	0.375706	0.310470
	H1203	H	0.333399	0.125126	0.189411
	H1204	H	0.218403	0.216722	0.217411
	H1205	H	0.198460	0.216764	0.199094
	H1206	H	0.198412	0.282782	0.300763
	H1207	H	0.218353	0.282855	0.282530
	H1208	H	0.198347	0.533287	0.199315
	H1209	H	0.218234	0.533036	0.217592
	H1210	H	0.218348	-0.033134	0.282393
	H1211	H	0.198376	-0.033385	0.300604
	H1212	H	0.281685	-0.033550	0.282715
	H1213	H	0.301575	-0.033661	0.300927
	H1214	H	0.281914	0.533284	0.217607
	H1215	H	0.301818	0.533548	0.199275
	Al1216	Al	0.250070	-0.500176	0.416543
	Al1217	Al	0.250090	-0.249948	0.416608
	Al1218	Al	0.166777	-0.249859	0.333346
	Al1219	Al	0.166695	-0.500067	0.333358
	O1220	O	0.263579	-0.459325	0.432432
	O1221	O	0.250119	-0.375115	0.405613
	O1222	O	0.250168	-0.125041	0.427549
	O1223	O	0.319866	-0.459030	0.484331
	O1224	O	0.236546	-0.459056	0.432390
	O1225	O	0.180306	-0.459199	0.484139
	O1226	O	0.236637	-0.290993	0.432462
	O1227	O	0.236611	-0.209284	0.400767
	O1228	O	0.180281	-0.208979	0.349195
	O1229	O	0.263574	-0.291458	0.432481
	O1230	O	0.263573	-0.209044	0.400715
	O1231	O	0.319890	-0.208646	0.349156
	O1232	O	0.180255	-0.291220	0.484102
	O1233	O	0.236638	-0.040963	0.400728
	O1234	O	0.180286	-0.040706	0.349163
	O1235	O	0.319912	-0.040396	0.349171
	O1236	O	0.263553	-0.040912	0.400730
	O1237	O	0.319787	-0.290996	0.484338
	O1238	O	0.166696	-0.124862	0.489033
	O1239	O	0.333359	-0.374951	0.344153
	C1240	C	0.297267	-0.286689	0.463570
	C1241	C	0.303015	-0.375494	0.468838
	C1242	C	0.297277	-0.464388	0.463591
	C1243	C	0.286093	-0.464371	0.453284
	C1244	C	0.280365	-0.375539	0.447988
	C1245	C	0.286075	-0.286587	0.453239
	C1246	C	0.268328	-0.375498	0.436748
	C1247	C	0.315114	-0.374987	0.480027
	C1248	C	0.231812	-0.375082	0.436676
	C1249	C	0.219762	-0.375057	0.447814
	C1250	C	0.213962	-0.286217	0.452986
	C1251	C	0.202767	-0.286079	0.463288
	C1252	C	0.197066	-0.374917	0.468674
	C1253	C	0.202850	-0.463818	0.463483
	C1254	C	0.214050	-0.464027	0.453189
	C1255	C	0.185031	-0.375052	0.479863
	C1256	C	0.231880	-0.125039	0.396474
	C1257	C	0.219800	-0.125084	0.385372
	C1258	C	0.214079	-0.035959	0.380116
	C1259	C	0.202840	-0.035969	0.369857
	C1260	C	0.197111	-0.125005	0.364589
	C1261	C	0.202896	-0.214079	0.369765
	C1262	C	0.214123	-0.214020	0.380024
	C1263	C	0.185026	-0.124766	0.353478
	C1264	C	0.268296	-0.124857	0.396476
	C1265	C	0.280389	-0.124659	0.385332
	C1266	C	0.286105	-0.213815	0.380020
	C1267	C	0.297285	-0.214065	0.369730
	C1268	C	0.303084	-0.124945	0.364579
	C1269	C	0.297363	-0.035866	0.369875
	C1270	C	0.286182	-0.035551	0.380185
	C1271	C	0.315119	-0.124575	0.353418
	H1272	H	0.301555	-0.283122	0.365683
	H1273	H	0.281657	-0.282555	0.383895
	H1274	H	0.301613	-0.217660	0.467548
	H1275	H	0.281764	-0.217622	0.449186
	H1276	H	0.250137	-0.374371	0.393714
	H1277	H	0.250211	-0.125471	0.439436
	H1278	H	0.166573	-0.125530	0.477029
	H1279	H	0.333508	-0.375219	0.356155
	H1280	H	0.218475	-0.283050	0.383951
	H1281	H	0.198589	-0.282960	0.365686
	H1282	H	0.198426	-0.217016	0.467244
	H1283	H	0.218236	-0.217601	0.448821
	H1284	H	0.198496	0.032936	0.365867
	H1285	H	0.218446	0.033097	0.384117
	H1286	H	0.218390	-0.533222	0.449222
	H1287	H	0.198512	-0.532720	0.467663
	H1288	H	0.281801	-0.533663	0.449236
	H1289	H	0.301642	-0.533378	0.467591
	H1290	H	0.281817	0.033461	0.384215
	H1291	H	0.301780	0.033007	0.365877
	Al1292	Al	0.250071	0.000266	0.416639
	Al1293	Al	0.250053	0.249998	0.416625
	Al1294	Al	0.166715	0.250113	0.333216
	Al1295	Al	0.166761	0.000013	0.333304
	O1296	O	0.263613	0.040935	0.432484
	O1297	O	0.250018	0.125086	0.405658
	O1298	O	0.250022	0.375007	0.427566
	O1299	O	0.319905	0.041089	0.484215
	O1300	O	0.236620	0.041002	0.432501
	O1301	O	0.180243	0.040767	0.484158
	O1302	O	0.236584	0.209049	0.432530
	O1303	O	0.236533	0.290727	0.400759
	O1304	O	0.180193	0.291132	0.349136
	O1305	O	0.263571	0.208906	0.432437
	O1306	O	0.263550	0.290643	0.400735
	O1307	O	0.319933	0.290936	0.349215
	O1308	O	0.180191	0.209086	0.484032
	O1309	O	0.236559	0.458993	0.400749
	O1310	O	0.180217	0.459061	0.349171
	O1311	O	0.319926	0.459144	0.349287
	O1312	O	0.263532	0.458655	0.400717
	O1313	O	0.319815	0.209324	0.484317
	O1314	O	0.166802	0.375281	0.489031
	O1315	O	0.333445	0.125195	0.344241
	C1316	C	0.297323	0.214006	0.463550
	C1317	C	0.303072	0.125186	0.468786
	C1318	C	0.297322	0.036094	0.463609
	C1319	C	0.286130	0.036000	0.453300
	C1320	C	0.280417	0.124921	0.447958
	C1321	C	0.286135	0.213878	0.453226
	C1322	C	0.268343	0.124975	0.436744
	C1323	C	0.315122	0.125045	0.479991
	C1324	C	0.231829	0.124952	0.436763
	C1325	C	0.219782	0.124577	0.447964
	C1326	C	0.214024	0.213489	0.453119
	C1327	C	0.202789	0.213640	0.463385
	C1328	C	0.197041	0.124946	0.468658
	C1329	C	0.202833	0.036115	0.463520
	C1330	C	0.214056	0.035892	0.453240
	C1331	C	0.185001	0.125020	0.479826
	C1332	C	0.231813	0.374901	0.396459
	C1333	C	0.219755	0.375046	0.385331
	C1334	C	0.214012	0.464074	0.380082
	C1335	C	0.202801	0.464262	0.369797
	C1336	C	0.197050	0.375182	0.364573
	C1337	C	0.202809	0.286254	0.369809
	C1338	C	0.214014	0.286106	0.380099
	C1339	C	0.184971	0.374969	0.353430
	C1340	C	0.268330	0.374696	0.396457
	C1341	C	0.280361	0.374819	0.385325
	C1342	C	0.286062	0.285879	0.379965
	C1343	C	0.297274	0.286113	0.369741
	C1344	C	0.303096	0.375051	0.364593
	C1345	C	0.297383	0.464124	0.369922
	C1346	C	0.286174	0.463900	0.380167
	C1347	C	0.315161	0.374796	0.353491
	H1348	H	0.301598	0.217161	0.365670
	H1349	H	0.281714	0.216929	0.383929
	H1350	H	0.301621	0.282740	0.467588
	H1351	H	0.281815	0.282674	0.449147
	H1352	H	0.249991	0.125373	0.393712
	H1353	H	0.249804	0.375281	0.439508
	H1354	H	0.166843	0.374650	0.477019
	H1355	H	0.333664	0.125185	0.356255
	H1356	H	0.218367	0.217054	0.384031
	H1357	H	0.198453	0.217221	0.365801
	H1358	H	0.198412	0.282506	0.467291
	H1359	H	0.218336	0.282331	0.449088
	H1360	H	0.198440	0.533292	0.365821
	H1361	H	0.218379	0.533173	0.384065
	H1362	H	0.218428	-0.032885	0.449324
	H1363	H	0.198509	-0.032775	0.467444
	H1364	H	0.281803	-0.033044	0.449304
	H1365	H	0.301628	-0.032580	0.467722
	H1366	H	0.281868	0.532737	0.384309
	H1367	H	0.301766	0.533161	0.365992
	Al1368	Al	0.249980	-0.499867	0.583465
	Al1369	Al	0.250010	-0.249797	0.583517
	Al1370	Al	0.166732	-0.249926	0.500005
	Al1371	Al	0.166769	-0.499908	0.500021
	O1372	O	0.263531	-0.459351	0.599308
	O1373	O	0.250006	-0.374824	0.572571
	O1374	O	0.249951	-0.124974	0.594479
	O1375	O	0.319792	-0.459564	0.650942
	O1376	O	0.236512	-0.458895	0.599405
	O1377	O	0.180060	-0.458860	0.650783
	O1378	O	0.236554	-0.290744	0.599454
	O1379	O	0.236502	-0.208744	0.567632
	O1380	O	0.180225	-0.208952	0.515796
	O1381	O	0.263518	-0.291034	0.599331
	O1382	O	0.263461	-0.208984	0.567586
	O1383	O	0.319861	-0.209408	0.516039
	O1384	O	0.180180	-0.290786	0.650938
	O1385	O	0.236567	-0.040571	0.567570
	O1386	O	0.180178	-0.040829	0.515852
	O1387	O	0.319775	-0.041112	0.515971
	O1388	O	0.263493	-0.041022	0.567645
	O1389	O	0.319857	-0.291260	0.650902
	O1390	O	0.166620	-0.124926	0.655916
	O1391	O	0.333302	-0.375179	0.511173
	C1392	C	0.297231	-0.285915	0.630318
	C1393	C	0.302966	-0.375211	0.635562
	C1394	C	0.297202	-0.464446	0.630346
	C1395	C	0.285990	-0.464418	0.620067
	C1396	C	0.280269	-0.375143	0.614839
	C1397	C	0.286020	-0.285874	0.620034
	C1398	C	0.268226	-0.375355	0.603640
	C1399	C	0.315069	-0.375375	0.646702
	C1400	C	0.231766	-0.374832	0.603663
	C1401	C	0.219716	-0.374848	0.614833
	C1402	C	0.214037	-0.285712	0.620164
	C1403	C	0.202799	-0.285632	0.630419
	C1404	C	0.196992	-0.374799	0.635536
	C1405	C	0.202686	-0.463841	0.630213
	C1406	C	0.213912	-0.463950	0.619949
	C1407	C	0.184909	-0.374707	0.646656
	C1408	C	0.231764	-0.124675	0.563355
	C1409	C	0.219708	-0.124830	0.552190
	C1410	C	0.213906	-0.035768	0.547030
	C1411	C	0.202690	-0.035826	0.536746
	C1412	C	0.196969	-0.124852	0.531392
	C1413	C	0.202829	-0.213745	0.536467
	C1414	C	0.214040	-0.213871	0.546761
	C1415	C	0.184947	-0.124810	0.520121
	C1416	C	0.268231	-0.124987	0.563342
	C1417	C	0.280311	-0.125054	0.552212
	C1418	C	0.286060	-0.214108	0.546973
	C1419	C	0.297298	-0.214265	0.536751
	C1420	C	0.303054	-0.125308	0.531507
	C1421	C	0.297304	-0.036341	0.536743
	C1422	C	0.286070	-0.036178	0.546987
	C1423	C	0.315086	-0.125335	0.520327
	H1424	H	0.301655	-0.283333	0.532759
	H1425	H	0.281698	-0.283040	0.550995
	H1426	H	0.301591	-0.216869	0.634328
	H1427	H	0.281696	-0.216778	0.615980
	H1428	H	0.249944	-0.374482	0.560577
	H1429	H	0.249674	-0.124541	0.606371
	H1430	H	0.166516	-0.124843	0.643998
	H1431	H	0.333243	-0.374991	0.523185
	H1432	H	0.218459	-0.283121	0.550607
	H1433	H	0.198544	-0.282609	0.532302
	H1434	H	0.198536	-0.216437	0.634550
	H1435	H	0.218411	-0.216770	0.616198
	H1436	H	0.198320	0.033094	0.532776
	H1437	H	0.218217	0.033057	0.551128
	H1438	H	0.218184	-0.532892	0.615856
	H1439	H	0.198339	-0.532734	0.634118
	H1440	H	0.281592	-0.533618	0.616107
	H1441	H	0.301533	-0.533646	0.634371
	H1442	H	0.281763	0.032619	0.551015
	H1443	H	0.301663	0.032781	0.532774
	Al1444	Al	0.250026	0.000044	0.583478
	Al1445	Al	0.249997	0.250142	0.583537
	Al1446	Al	0.166740	0.250088	0.499958
	Al1447	Al	0.166774	0.000218	0.499978
	O1448	O	0.263422	0.041207	0.599435
	O1449	O	0.249964	0.124968	0.572600
	O1450	O	0.249953	0.375354	0.594493
	O1451	O	0.319850	0.040857	0.650883
	O1452	O	0.236515	0.041074	0.599372
	O1453	O	0.180101	0.041226	0.650816
	O1454	O	0.236564	0.209095	0.599473
	O1455	O	0.236517	0.291290	0.567608
	O1456	O	0.180254	0.290719	0.515852
	O1457	O	0.263507	0.209232	0.599424
	O1458	O	0.263445	0.290760	0.567634
	O1459	O	0.319854	0.290936	0.516070
	O1460	O	0.180136	0.209235	0.650946
	O1461	O	0.236476	0.459386	0.567570
	O1462	O	0.180226	0.458849	0.515885
	O1463	O	0.319846	0.459137	0.516113
	O1464	O	0.263427	0.458959	0.567605
	O1465	O	0.319828	0.208962	0.651006
	O1466	O	0.166584	0.374974	0.655817
	O1467	O	0.333269	0.124917	0.511160
	C1468	C	0.297287	0.213971	0.630227
	C1469	C	0.303011	0.125099	0.635541
	C1470	C	0.297242	0.036068	0.630414
	C1471	C	0.286009	0.036107	0.620181
	C1472	C	0.280290	0.124958	0.614835
	C1473	C	0.286045	0.213917	0.619979
	C1474	C	0.268217	0.125076	0.603709
	C1475	C	0.315099	0.124784	0.646666
	C1476	C	0.231752	0.124933	0.603643
	C1477	C	0.219702	0.125018	0.614811
	C1478	C	0.214048	0.214048	0.620242
	C1479	C	0.202840	0.213945	0.630457
	C1480	C	0.196946	0.124878	0.635465
	C1481	C	0.202625	0.035823	0.630078
	C1482	C	0.213839	0.035997	0.619838
	C1483	C	0.184893	0.125229	0.646665
	C1484	C	0.231738	0.375211	0.563305
	C1485	C	0.219690	0.375084	0.552113
	C1486	C	0.213875	0.464037	0.546942
	C1487	C	0.202675	0.463797	0.536692
	C1488	C	0.196990	0.374831	0.531368
	C1489	C	0.202777	0.285729	0.536566
	C1490	C	0.213983	0.285951	0.546818
	C1491	C	0.184975	0.374645	0.520144
	C1492	C	0.268177	0.374878	0.563288
	C1493	C	0.280261	0.375056	0.552229
	C1494	C	0.285977	0.286159	0.546877
	C1495	C	0.297209	0.286065	0.536629
	C1496	C	0.303001	0.375055	0.531471
	C1497	C	0.297294	0.463886	0.536826
	C1498	C	0.286059	0.463908	0.547080
	C1499	C	0.315069	0.375073	0.520333
	H1500	H	0.301522	0.217183	0.532511
	H1501	H	0.281591	0.217321	0.550748
	H1502	H	0.301663	0.283132	0.634168
	H1503	H	0.281742	0.282938	0.615907
	H1504	H	0.249971	0.125475	0.560668
	H1505	H	0.249942	0.375888	0.606440
	H1506	H	0.166671	0.374692	0.643796
	H1507	H	0.333227	0.124740	0.523112
	H1508	H	0.218377	0.217071	0.550812
	H1509	H	0.198457	0.216416	0.532505
	H1510	H	0.198571	0.282687	0.634670
	H1511	H	0.218439	0.283080	0.616401
	H1512	H	0.198310	0.532822	0.532703
	H1513	H	0.218160	0.532756	0.551010
	H1514	H	0.218157	-0.032938	0.615649
	H1515	H	0.198234	-0.033197	0.633926
	H1516	H	0.281678	-0.032842	0.616288
	H1517	H	0.301551	-0.032910	0.634502
	H1518	H	0.281718	0.532712	0.551080
	H1519	H	0.301689	0.532564	0.532907
	Al1520	Al	0.249931	-0.499973	0.750174
	Al1521	Al	0.249994	-0.249696	0.750148
	Al1522	Al	0.166617	-0.250196	0.666841
	Al1523	Al	0.166568	-0.499888	0.666755
	O1524	O	0.263341	-0.458773	0.766109
	O1525	O	0.249907	-0.374793	0.739235
	O1526	O	0.249950	-0.124986	0.761092
	O1527	O	0.319780	-0.458943	0.817593
	O1528	O	0.236443	-0.459067	0.766018
	O1529	O	0.180055	-0.459098	0.817433
	O1530	O	0.236546	-0.290768	0.766059
	O1531	O	0.236447	-0.209369	0.734233
	O1532	O	0.180006	-0.209282	0.682844
	O1533	O	0.263468	-0.290553	0.766009
	O1534	O	0.263421	-0.208914	0.734157
	O1535	O	0.319852	-0.208942	0.682804
	O1536	O	0.180044	-0.291000	0.817394
	O1537	O	0.236516	-0.041210	0.734171
	O1538	O	0.180077	-0.041047	0.682732
	O1539	O	0.319869	-0.040723	0.682737
	O1540	O	0.263393	-0.040900	0.734223
	O1541	O	0.319822	-0.290632	0.817497
	O1542	O	0.166639	-0.125144	0.822455
	O1543	O	0.333290	-0.375001	0.677754
	C1544	C	0.297241	-0.285691	0.796866
	C1545	C	0.303001	-0.374908	0.802066
	C1546	C	0.297207	-0.464401	0.796951
	C1547	C	0.285987	-0.464505	0.786710
	C1548	C	0.280258	-0.375150	0.781429
	C1549	C	0.286019	-0.285803	0.786627
	C1550	C	0.268180	-0.374776	0.770271
	C1551	C	0.315052	-0.374855	0.813237
	C1552	C	0.231720	-0.374676	0.770308
	C1553	C	0.219647	-0.374727	0.781406
	C1554	C	0.213992	-0.285950	0.786817
	C1555	C	0.202760	-0.285868	0.797050
	C1556	C	0.196902	-0.375022	0.802103
	C1557	C	0.202593	-0.463986	0.796767
	C1558	C	0.213823	-0.463922	0.786514
	C1559	C	0.184808	-0.375138	0.813202
	C1560	C	0.231757	-0.125216	0.729928
	C1561	C	0.219679	-0.125085	0.718779
	C1562	C	0.213988	-0.035947	0.713453
	C1563	C	0.202739	-0.036111	0.703266
	C1564	C	0.196904	-0.125125	0.698134
	C1565	C	0.202642	-0.214296	0.703430
	C1566	C	0.213886	-0.214273	0.713603
	C1567	C	0.184827	-0.125203	0.687015
	C1568	C	0.268201	-0.124863	0.729962
	C1569	C	0.280247	-0.124672	0.718810
	C1570	C	0.286017	-0.213962	0.713582
	C1571	C	0.297265	-0.213887	0.703394
	C1572	C	0.303074	-0.124652	0.698233
	C1573	C	0.297287	-0.035369	0.703379
	C1574	C	0.286039	-0.035494	0.713586
	C1575	C	0.315105	-0.124782	0.687040
	H1576	H	0.301580	-0.283091	0.699333
	H1577	H	0.281699	-0.283083	0.717592
	H1578	H	0.301615	-0.216539	0.800831
	H1579	H	0.281684	-0.216838	0.782604
	H1580	H	0.249698	-0.375056	0.727190
	H1581	H	0.249986	-0.124945	0.773062
	H1582	H	0.166481	-0.125100	0.810439
	H1583	H	0.333688	-0.375248	0.689795
	H1584	H	0.218188	-0.283439	0.717672
	H1585	H	0.198281	-0.283487	0.699459
	H1586	H	0.198484	-0.217066	0.801107
	H1587	H	0.218422	-0.216983	0.782984
	H1588	H	0.198481	0.032875	0.699134
	H1589	H	0.218392	0.033112	0.717416
	H1590	H	0.218114	-0.532850	0.782439
	H1591	H	0.198197	-0.533036	0.800704
	H1592	H	0.281573	-0.533324	0.782830
	H1593	H	0.301572	-0.533377	0.800939
	H1594	H	0.281694	0.034079	0.717628
	H1595	H	0.301648	0.033656	0.699254
	Al1596	Al	0.249914	-0.000096	0.750177
	Al1597	Al	0.249897	0.250184	0.750125
	Al1598	Al	0.166607	0.250077	0.666813
	Al1599	Al	0.166593	0.000180	0.666769
	O1600	O	0.263446	0.041196	0.765927
	O1601	O	0.249965	0.124909	0.739221
	O1602	O	0.249970	0.374960	0.761102
	O1603	O	0.319829	0.041039	0.817469
	O1604	O	0.236406	0.041235	0.766031
	O1605	O	0.180101	0.040809	0.817560
	O1606	O	0.236496	0.209337	0.766117
	O1607	O	0.236443	0.290625	0.734271
	O1608	O	0.180076	0.290772	0.682693
	O1609	O	0.263384	0.209204	0.766036
	O1610	O	0.263383	0.291005	0.734252
	O1611	O	0.319836	0.290437	0.682800
	O1612	O	0.180050	0.208994	0.817460
	O1613	O	0.236493	0.459092	0.734234
	O1614	O	0.180124	0.459280	0.682607
	O1615	O	0.319790	0.458717	0.682816
	O1616	O	0.263400	0.459015	0.734237
	O1617	O	0.319782	0.209105	0.817446
	O1618	O	0.166544	0.374888	0.822346
	O1619	O	0.333319	0.124852	0.677807
	C1620	C	0.297279	0.214323	0.796725
	C1621	C	0.303019	0.125026	0.802005
	C1622	C	0.297200	0.035890	0.796874
	C1623	C	0.285986	0.035922	0.786655
	C1624	C	0.280261	0.125145	0.781358
	C1625	C	0.286085	0.214196	0.786486
	C1626	C	0.268185	0.125250	0.770226
	C1627	C	0.315033	0.124888	0.813157
	C1628	C	0.231682	0.125475	0.770336
	C1629	C	0.219607	0.125084	0.781436
	C1630	C	0.213929	0.214000	0.786787
	C1631	C	0.202705	0.214057	0.797037
	C1632	C	0.196916	0.125090	0.802155
	C1633	C	0.202595	0.036218	0.796804
	C1634	C	0.213817	0.036199	0.786551
	C1635	C	0.184841	0.124877	0.813280
	C1636	C	0.231710	0.375075	0.729963
	C1637	C	0.219659	0.375135	0.718739
	C1638	C	0.213964	0.464448	0.713433
	C1639	C	0.202730	0.464676	0.703123
	C1640	C	0.196960	0.375379	0.697996
	C1641	C	0.202668	0.286221	0.703333
	C1642	C	0.213895	0.286087	0.713612
	C1643	C	0.184846	0.374942	0.686889
	C1644	C	0.268133	0.374860	0.729968
	C1645	C	0.280194	0.374652	0.718796
	C1646	C	0.285996	0.285495	0.713674
	C1647	C	0.297240	0.285464	0.703464
	C1648	C	0.302968	0.374405	0.698162
	C1649	C	0.297229	0.463500	0.703395
	C1650	C	0.285998	0.463545	0.713587
	C1651	C	0.315035	0.374572	0.687056
	H1652	H	0.301578	0.216592	0.699469
	H1653	H	0.281671	0.216605	0.717800
	H1654	H	0.301691	0.283386	0.800636
	H1655	H	0.281785	0.283084	0.782401
	H1656	H	0.250086	0.124722	0.727267
	H1657	H	0.249787	0.374737	0.773067
	H1658	H	0.166416	0.375496	0.810342
	H1659	H	0.333238	0.124700	0.689714
	H1660	H	0.218131	0.216786	0.717734
	H1661	H	0.198292	0.216984	0.699470
	H1662	H	0.198448	0.282782	0.801156
	H1663	H	0.218313	0.282606	0.782894
	H1664	H	0.198425	0.533861	0.699098
	H1665	H	0.218291	0.533540	0.717403
	H1666	H	0.218107	-0.032904	0.782443
	H1667	H	0.198213	-0.032901	0.800678
	H1668	H	0.281592	-0.033178	0.782719
	H1669	H	0.301528	-0.033302	0.800958
	H1670	H	0.281670	0.532410	0.717581
	H1671	H	0.301609	0.532514	0.699457
	Al1672	Al	0.249946	-0.500023	0.916759
	Al1673	Al	0.249934	-0.250007	0.916629
	Al1674	Al	0.166596	-0.250110	0.833356
	Al1675	Al	0.166571	-0.500155	0.833296
	O1676	O	0.263447	-0.459155	0.932609
	O1677	O	0.249878	-0.375244	0.905881
	O1678	O	0.249982	-0.125430	0.927641
	O1679	O	0.319813	-0.459075	0.984196
	O1680	O	0.236433	-0.459520	0.932638
	O1681	O	0.180062	-0.459497	0.984129
	O1682	O	0.236417	-0.291289	0.932482
	O1683	O	0.236458	-0.209203	0.900738
	O1684	O	0.180078	-0.209221	0.849253
	O1685	O	0.263404	-0.290841	0.932606
	O1686	O	0.263363	-0.209150	0.900665
	O1687	O	0.319805	-0.209228	0.849239
	O1688	O	0.180057	-0.291075	0.984162
	O1689	O	0.236420	-0.040916	0.900796
	O1690	O	0.179999	-0.040680	0.849388
	O1691	O	0.319849	-0.041152	0.849293
	O1692	O	0.263425	-0.040851	0.900832
	O1693	O	0.319785	-0.290891	0.984218
	O1694	O	0.166602	-0.124737	0.989101
	O1695	O	0.333280	-0.375019	0.844328
	C1696	C	0.297245	-0.285864	0.963474
	C1697	C	0.303048	-0.375034	0.968649
	C1698	C	0.297313	-0.464201	0.963327
	C1699	C	0.286081	-0.464341	0.953049
	C1700	C	0.280310	-0.375041	0.947879
	C1701	C	0.286050	-0.285957	0.953184
	C1702	C	0.268215	-0.375042	0.936806
	C1703	C	0.315079	-0.374978	0.979909
	C1704	C	0.231676	-0.375276	0.936824
	C1705	C	0.219583	-0.375105	0.947948
	C1706	C	0.213812	-0.286056	0.953150
	C1707	C	0.202591	-0.286120	0.963454
	C1708	C	0.196867	-0.375335	0.968710
	C1709	C	0.202626	-0.464349	0.963493
	C1710	C	0.213852	-0.464335	0.953214
	C1711	C	0.184822	-0.375190	0.979875
	C1712	C	0.231706	-0.124905	0.896448
	C1713	C	0.219628	-0.124983	0.885271
	C1714	C	0.213810	-0.035843	0.880229
	C1715	C	0.202549	-0.036019	0.870026
	C1716	C	0.196870	-0.125051	0.864682
	C1717	C	0.202682	-0.214279	0.869780
	C1718	C	0.213947	-0.214200	0.879978
	C1719	C	0.184799	-0.124911	0.853511
	C1720	C	0.268139	-0.124998	0.896532
	C1721	C	0.280230	-0.125066	0.885377
	C1722	C	0.285952	-0.214338	0.880069
	C1723	C	0.297208	-0.214324	0.869842
	C1724	C	0.303000	-0.125194	0.864701
	C1725	C	0.297284	-0.035996	0.869996
	C1726	C	0.286029	-0.035987	0.880250
	C1727	C	0.315068	-0.125199	0.853512
	H1728	H	0.301537	-0.283385	0.865842
	H1729	H	0.281614	-0.283507	0.883996
	H1730	H	0.301554	-0.216924	0.967564
	H1731	H	0.281719	-0.216974	0.949167
	H1732	H	0.249698	-0.375245	0.893916
	H1733	H	0.250229	-0.125257	0.939679
	H1734	H	0.166505	-0.125090	0.977123
	H1735	H	0.333337	-0.374799	0.856309
	H1736	H	0.218326	-0.283146	0.883891
	H1737	H	0.198430	-0.283376	0.865685
	H1738	H	0.198246	-0.217185	0.967459
	H1739	H	0.218141	-0.216860	0.949118
	H1740	H	0.198164	0.033053	0.866137
	H1741	H	0.218089	0.033391	0.884370
	H1742	H	0.218207	-0.533540	0.949252
	H1743	H	0.198319	-0.533561	0.967552
	H1744	H	0.281774	-0.533180	0.948872
	H1745	H	0.301685	-0.533193	0.967262
	H1746	H	0.281713	0.033122	0.884294
	H1747	H	0.301666	0.033096	0.866090
	Al1748	Al	0.249926	0.000033	0.916713
	Al1749	Al	0.249899	0.249961	0.916668
	Al1750	Al	0.166564	0.249803	0.833330
	Al1751	Al	0.166584	0.000017	0.833375
	O1752	O	0.263391	0.040548	0.932552
	O1753	O	0.249894	0.124907	0.905778
	O1754	O	0.249938	0.375027	0.927635
	O1755	O	0.319829	0.040844	0.984077
	O1756	O	0.236481	0.040733	0.932546
	O1757	O	0.180100	0.040613	0.984154
	O1758	O	0.236440	0.209199	0.932571
	O1759	O	0.236438	0.291097	0.900778
	O1760	O	0.180140	0.290712	0.849013
	O1761	O	0.263416	0.208750	0.932576
	O1762	O	0.263422	0.290844	0.900841
	O1763	O	0.319845	0.291264	0.849310
	O1764	O	0.180079	0.209024	0.984117
	O1765	O	0.236455	0.459236	0.900866
	O1766	O	0.180026	0.458824	0.849213
	O1767	O	0.319790	0.459425	0.849287
	O1768	O	0.263433	0.459095	0.900863
	O1769	O	0.319817	0.209045	0.984155
	O1770	O	0.166515	0.374788	0.989116
	O1771	O	0.333244	0.125190	0.844299
	C1772	C	0.297242	0.213969	0.963420
	C1773	C	0.302974	0.124940	0.968712
	C1774	C	0.297225	0.035714	0.963443
	C1775	C	0.286035	0.035843	0.953124
	C1776	C	0.280245	0.124928	0.947968
	C1777	C	0.286040	0.214218	0.953097
	C1778	C	0.268157	0.124668	0.936859
	C1779	C	0.315035	0.125031	0.979900
	C1780	C	0.231733	0.124865	0.936850
	C1781	C	0.219660	0.124947	0.947997
	C1782	C	0.213863	0.214251	0.953208
	C1783	C	0.202655	0.214226	0.963437
	C1784	C	0.196916	0.124991	0.968735
	C1785	C	0.202727	0.035659	0.963539
	C1786	C	0.213924	0.035682	0.953275
	C1787	C	0.184866	0.124712	0.979872
	C1788	C	0.231695	0.374998	0.896572
	C1789	C	0.219665	0.375435	0.885339
	C1790	C	0.213839	0.464273	0.880180
	C1791	C	0.202611	0.463923	0.869900
	C1792	C	0.196931	0.374876	0.864525
	C1793	C	0.202738	0.286167	0.869743
	C1794	C	0.213960	0.286294	0.880017
	C1795	C	0.184869	0.374952	0.853400
	C1796	C	0.268167	0.375198	0.896567
	C1797	C	0.280240	0.375121	0.885404
	C1798	C	0.285943	0.285897	0.880100
	C1799	C	0.297175	0.286184	0.869857
	C1800	C	0.302972	0.375340	0.864701
	C1801	C	0.297236	0.464517	0.869960
	C1802	C	0.286001	0.464468	0.880216
	C1803	C	0.315052	0.375309	0.853517
	H1804	H	0.301460	0.216989	0.865728
	H1805	H	0.281590	0.216613	0.884044
	H1806	H	0.301607	0.282996	0.967369
	H1807	H	0.281646	0.283065	0.949204
	H1808	H	0.249641	0.125320	0.893780
	H1809	H	0.249981	0.374950	0.939580
	H1810	H	0.166268	0.374471	0.977122
	H1811	H	0.333394	0.124990	0.856222
	H1812	H	0.218304	0.217548	0.884047
	H1813	H	0.198441	0.217087	0.865700
	H1814	H	0.198277	0.283491	0.967420
	H1815	H	0.218225	0.283400	0.949184
	H1816	H	0.198192	0.532709	0.866043
	H1817	H	0.218072	0.533194	0.884344
	H1818	H	0.218323	-0.033392	0.949292
	H1819	H	0.198366	-0.033532	0.967643
	H1820	H	0.281687	-0.033240	0.949155
	H1821	H	0.301578	-0.033178	0.967446
	H1822	H	0.281684	0.533571	0.884235
	H1823	H	0.301571	0.533658	0.865899
	Al1824	Al	0.416685	-0.500065	0.083133
	Al1825	Al	0.416732	-0.250086	0.083225
	Al1826	Al	0.333321	-0.249807	0.000034
	Al1827	Al	0.333317	-0.499957	-0.000003
	O1828	O	0.430219	-0.459024	0.098999
	O1829	O	0.416690	-0.375189	0.072273
	O1830	O	0.416657	-0.125148	0.094203
	O1831	O	0.486516	-0.459062	0.150778
	O1832	O	0.403210	-0.458992	0.098982
	O1833	O	0.346938	-0.459044	0.150738
	O1834	O	0.403243	-0.290783	0.099107
	O1835	O	0.403207	-0.208952	0.067392
	O1836	O	0.346814	-0.209077	0.015993
	O1837	O	0.430205	-0.291114	0.099095
	O1838	O	0.430162	-0.208807	0.067346
	O1839	O	0.486670	-0.208683	0.015904
	O1840	O	0.346829	-0.290846	0.150581
	O1841	O	0.403170	-0.040778	0.067413
	O1842	O	0.346819	-0.040651	0.015892
	O1843	O	0.486477	-0.040556	0.015697
	O1844	O	0.430205	-0.040590	0.067356
	O1845	O	0.486494	-0.291357	0.150780
	O1846	O	0.333335	-0.124712	0.155647
	O1847	O	0.500025	-0.374752	0.010893
	C1848	C	0.463994	-0.286478	0.129903
	C1849	C	0.469722	-0.375388	0.135229
	C1850	C	0.463947	-0.464282	0.130015
	C1851	C	0.452770	-0.464201	0.119705
	C1852	C	0.447035	-0.375222	0.114419
	C1853	C	0.452804	-0.286291	0.119625
	C1854	C	0.435021	-0.375236	0.103275
	C1855	C	0.481748	-0.375239	0.146464
	C1856	C	0.398452	-0.374873	0.103308
	C1857	C	0.386391	-0.374746	0.114450
	C1858	C	0.380667	-0.285616	0.119730
	C1859	C	0.369452	-0.285657	0.129994
	C1860	C	0.363688	-0.374889	0.135210
	C1861	C	0.369449	-0.463963	0.129986
	C1862	C	0.380666	-0.463723	0.119729
	C1863	C	0.351636	-0.374800	0.146372
	C1864	C	0.398449	-0.124954	0.063139
	C1865	C	0.386392	-0.124883	0.051933
	C1866	C	0.380673	-0.035674	0.046669
	C1867	C	0.369464	-0.035604	0.036417
	C1868	C	0.363679	-0.124870	0.031286
	C1869	C	0.369363	-0.214042	0.036569
	C1870	C	0.380582	-0.213983	0.046813
	C1871	C	0.351608	-0.124725	0.020123
	C1872	C	0.434946	-0.124722	0.063061
	C1873	C	0.446988	-0.124756	0.051862
	C1874	C	0.452766	-0.213871	0.046663
	C1875	C	0.463989	-0.213821	0.036410
	C1876	C	0.469721	-0.124800	0.031185
	C1877	C	0.463950	-0.035686	0.036378
	C1878	C	0.452724	-0.035746	0.046651
	C1879	C	0.481782	-0.124692	0.020004
	H1880	H	0.468300	-0.283044	0.032343
	H1881	H	0.448449	-0.283171	0.050660
	H1882	H	0.468350	-0.217745	0.133935
	H1883	H	0.448534	-0.217247	0.115572
	H1884	H	0.416540	-0.376068	0.060348
	H1885	H	0.416500	-0.125723	0.106090
	H1886	H	0.333225	-0.124384	0.143651
	H1887	H	0.500074	-0.375470	0.022860
	H1888	H	0.384871	-0.283034	0.050918
	H1889	H	0.364996	-0.283067	0.032654
	H1890	H	0.365119	-0.216389	0.134060
	H1891	H	0.385004	-0.216504	0.115755
	H1892	H	0.365144	0.033466	0.032315
	H1893	H	0.385060	0.033448	0.050555
	H1894	H	0.385041	-0.532605	0.115740
	H1895	H	0.365153	-0.532799	0.133981
	H1896	H	0.448426	-0.532916	0.115662
	H1897	H	0.468277	-0.533023	0.134019
	H1898	H	0.448377	0.033500	0.050658
	H1899	H	0.468239	0.033414	0.032309
	Al1900	Al	0.416724	-0.000001	0.083268
	Al1901	Al	0.416703	0.250113	0.083250
	Al1902	Al	0.333271	0.250196	-0.000027
	Al1903	Al	0.333314	-0.000005	-0.000010
	O1904	O	0.430205	0.041017	0.099095
	O1905	O	0.416681	0.124974	0.072242
	O1906	O	0.416751	0.375185	0.094162
	O1907	O	0.486523	0.040912	0.150599
	O1908	O	0.403273	0.041294	0.099155
	O1909	O	0.346821	0.041037	0.150639
	O1910	O	0.403260	0.209319	0.099142
	O1911	O	0.403162	0.290695	0.067368
	O1912	O	0.346739	0.290937	0.015907
	O1913	O	0.430193	0.209244	0.099115
	O1914	O	0.430196	0.290698	0.067342
	O1915	O	0.486557	0.290616	0.015848
	O1916	O	0.346879	0.209238	0.150646
	O1917	O	0.403208	0.458811	0.067264
	O1918	O	0.346832	0.459128	0.015819
	O1919	O	0.486522	0.458776	0.015839
	O1920	O	0.430143	0.458837	0.067271
	O1921	O	0.486600	0.209055	0.150562
	O1922	O	0.333374	0.375081	0.155648
	O1923	O	0.500114	0.125000	0.010806
	C1924	C	0.464026	0.214352	0.129895
	C1925	C	0.469720	0.125167	0.135183
	C1926	C	0.463939	0.036041	0.130052
	C1927	C	0.452723	0.036021	0.119774
	C1928	C	0.447016	0.125239	0.114506
	C1929	C	0.452809	0.214293	0.119643
	C1930	C	0.434944	0.125127	0.103365
	C1931	C	0.481778	0.125022	0.146402
	C1932	C	0.398481	0.125214	0.103412
	C1933	C	0.386395	0.125143	0.114519
	C1934	C	0.380599	0.213978	0.119704
	C1935	C	0.369359	0.214118	0.129974
	C1936	C	0.363656	0.125107	0.135221
	C1937	C	0.369374	0.036265	0.129920
	C1938	C	0.380618	0.036243	0.119644
	C1939	C	0.351628	0.125064	0.146393
	C1940	C	0.398437	0.374738	0.063074
	C1941	C	0.386386	0.374858	0.051871
	C1942	C	0.380666	0.463766	0.046561
	C1943	C	0.369433	0.463852	0.036335
	C1944	C	0.363611	0.374927	0.031211
	C1945	C	0.369319	0.285996	0.036532
	C1946	C	0.380548	0.286020	0.046765
	C1947	C	0.351562	0.374955	0.020107
	C1948	C	0.434964	0.374698	0.063090
	C1949	C	0.446985	0.374593	0.051913
	C1950	C	0.452718	0.285550	0.046644
	C1951	C	0.463951	0.285446	0.036423
	C1952	C	0.469744	0.374530	0.031274
	C1953	C	0.463982	0.463546	0.036464
	C1954	C	0.452754	0.463634	0.046692
	C1955	C	0.481789	0.374640	0.020089
	H1956	H	0.468257	0.216473	0.032350
	H1957	H	0.448375	0.216392	0.050642
	H1958	H	0.468362	0.283554	0.133927
	H1959	H	0.448479	0.283393	0.115610
	H1960	H	0.416738	0.124195	0.060297
	H1961	H	0.416940	0.375073	0.106130
	H1962	H	0.333330	0.375004	0.143627
	H1963	H	0.500181	0.124896	0.022763
	H1964	H	0.384807	0.216945	0.050906
	H1965	H	0.364926	0.217351	0.032659
	H1966	H	0.365005	0.283166	0.133927
	H1967	H	0.384929	0.283299	0.115706
	H1968	H	0.365135	0.532700	0.032301
	H1969	H	0.385055	0.532615	0.050522
	H1970	H	0.384938	-0.032813	0.115649
	H1971	H	0.365010	-0.032812	0.133815
	H1972	H	0.448314	-0.033065	0.115845
	H1973	H	0.468198	-0.033142	0.134205
	H1974	H	0.448430	0.532940	0.050767
	H1975	H	0.468310	0.532407	0.032415
	Al1976	Al	0.416700	-0.499864	0.249920
	Al1977	Al	0.416679	-0.249888	0.249947
	Al1978	Al	0.333415	-0.249905	0.166549
	Al1979	Al	0.333431	-0.500056	0.166610
	O1980	O	0.430111	-0.459516	0.265885
	O1981	O	0.416661	-0.374820	0.238985
	O1982	O	0.416691	-0.125022	0.260847
	O1983	O	0.486489	-0.459143	0.317588
	O1984	O	0.403187	-0.459227	0.265766
	O1985	O	0.346841	-0.459281	0.317325
	O1986	O	0.403229	-0.291137	0.265860
	O1987	O	0.403176	-0.208964	0.234073
	O1988	O	0.346916	-0.208987	0.182391
	O1989	O	0.430150	-0.291180	0.265857
	O1990	O	0.430103	-0.208855	0.233959
	O1991	O	0.486542	-0.209104	0.182423
	O1992	O	0.346809	-0.291059	0.317317
	O1993	O	0.403216	-0.040743	0.234014
	O1994	O	0.346850	-0.040857	0.182561
	O1995	O	0.486503	-0.040900	0.182354
	O1996	O	0.430137	-0.040981	0.233968
	O1997	O	0.486420	-0.291069	0.317600
	O1998	O	0.333415	-0.124916	0.322317
	O1999	O	0.500035	-0.375095	0.177577
	C2000	C	0.463893	-0.286202	0.296840
	C2001	C	0.469644	-0.375386	0.302110
	C2002	C	0.463927	-0.464604	0.296821
	C2003	C	0.452705	-0.464717	0.286533
	C2004	C	0.446919	-0.375492	0.281352
	C2005	C	0.452671	-0.286299	0.286537
	C2006	C	0.434897	-0.375452	0.270091
	C2007	C	0.481673	-0.375248	0.313341
	C2008	C	0.398441	-0.375219	0.270049
	C2009	C	0.386445	-0.375029	0.281309
	C2010	C	0.380665	-0.285846	0.286488
	C2011	C	0.369433	-0.285956	0.296753
	C2012	C	0.363678	-0.375137	0.301960
	C2013	C	0.369440	-0.464101	0.296743
	C2014	C	0.380672	-0.464151	0.286492
	C2015	C	0.351593	-0.375172	0.313106
	C2016	C	0.398417	-0.124865	0.229808
	C2017	C	0.386395	-0.124970	0.218641
	C2018	C	0.380670	-0.036081	0.213381
	C2019	C	0.369462	-0.035885	0.203139
	C2020	C	0.363669	-0.124840	0.197935
	C2021	C	0.369458	-0.213742	0.203117
	C2022	C	0.380661	-0.213953	0.213382
	C2023	C	0.351616	-0.124846	0.186747
	C2024	C	0.434870	-0.125091	0.229751
	C2025	C	0.446947	-0.125080	0.218564
	C2026	C	0.452731	-0.214134	0.213340
	C2027	C	0.463948	-0.214123	0.203099
	C2028	C	0.469706	-0.125077	0.197808
	C2029	C	0.463962	-0.035866	0.203093
	C2030	C	0.452739	-0.035908	0.213356
	C2031	C	0.481777	-0.125215	0.186680
	H2032	H	0.468316	-0.283233	0.199144
	H2033	H	0.448395	-0.283120	0.217448
	H2034	H	0.468233	-0.217025	0.300836
	H2035	H	0.448352	-0.217098	0.282420
	H2036	H	0.416740	-0.375360	0.226956
	H2037	H	0.416320	-0.125084	0.272814
	H2038	H	0.333490	-0.125080	0.310332
	H2039	H	0.499974	-0.374649	0.189465
	H2040	H	0.384990	-0.282800	0.217392
	H2041	H	0.365105	-0.282369	0.199108
	H2042	H	0.365101	-0.216976	0.300668
	H2043	H	0.384974	-0.216905	0.282370
	H2044	H	0.365138	0.032991	0.199164
	H2045	H	0.385056	0.032612	0.217390
	H2046	H	0.384980	-0.533501	0.282442
	H2047	H	0.365088	-0.533100	0.300735
	H2048	H	0.448449	-0.533533	0.282450
	H2049	H	0.468275	-0.533923	0.300793
	H2050	H	0.448410	0.033174	0.217487
	H2051	H	0.468344	0.033204	0.199136
	Al2052	Al	0.416697	-0.000100	0.249933
	Al2053	Al	0.416659	0.250016	0.249907
	Al2054	Al	0.333357	0.250185	0.166564
	Al2055	Al	0.333375	0.000267	0.166647
	O2056	O	0.430099	0.040917	0.265919
	O2057	O	0.416750	0.124927	0.238995
	O2058	O	0.416729	0.374885	0.260804
	O2059	O	0.486483	0.040890	0.317479
	O2060	O	0.403182	0.040980	0.265815
	O2061	O	0.346783	0.041128	0.317365
	O2062	O	0.403210	0.209059	0.265824
	O2063	O	0.403204	0.290894	0.234008
	O2064	O	0.346850	0.291035	0.182433
	O2065	O	0.430119	0.209066	0.265861
	O2066	O	0.430107	0.290936	0.233957
	O2067	O	0.486554	0.290739	0.182454
	O2068	O	0.346843	0.209310	0.317381
	O2069	O	0.403231	0.459226	0.233975
	O2070	O	0.346861	0.459248	0.182484
	O2071	O	0.486554	0.459108	0.182522
	O2072	O	0.430122	0.459131	0.233872
	O2073	O	0.486467	0.209070	0.317579
	O2074	O	0.333349	0.375029	0.322383
	O2075	O	0.500054	0.125115	0.177456
	C2076	C	0.463917	0.213885	0.296805
	C2077	C	0.469702	0.124837	0.302018
	C2078	C	0.463953	0.035647	0.296785
	C2079	C	0.452717	0.035809	0.286505
	C2080	C	0.446939	0.125073	0.281335
	C2081	C	0.452710	0.214096	0.286533
	C2082	C	0.434873	0.125016	0.270156
	C2083	C	0.481712	0.124930	0.313284
	C2084	C	0.398421	0.124937	0.270073
	C2085	C	0.386396	0.125100	0.281294
	C2086	C	0.380637	0.214293	0.286521
	C2087	C	0.369406	0.214331	0.296756
	C2088	C	0.363619	0.125234	0.301988
	C2089	C	0.369379	0.036135	0.296756
	C2090	C	0.380588	0.036143	0.286509
	C2091	C	0.351584	0.125192	0.313182
	C2092	C	0.398446	0.374971	0.229707
	C2093	C	0.386368	0.375257	0.218592
	C2094	C	0.380654	0.464305	0.213324
	C2095	C	0.369425	0.464207	0.203087
	C2096	C	0.363654	0.375061	0.197896
	C2097	C	0.369363	0.285979	0.203139
	C2098	C	0.380567	0.286074	0.213416
	C2099	C	0.351602	0.375260	0.186691
	C2100	C	0.434868	0.374947	0.229659
	C2101	C	0.446966	0.374902	0.218502
	C2102	C	0.452703	0.285507	0.213314
	C2103	C	0.463953	0.285569	0.203075
	C2104	C	0.469712	0.374800	0.197856
	C2105	C	0.463935	0.464011	0.203006
	C2106	C	0.452687	0.464068	0.213218
	C2107	C	0.481783	0.374844	0.186719
	H2108	H	0.468286	0.216325	0.199101
	H2109	H	0.448352	0.216452	0.217350
	H2110	H	0.468249	0.283234	0.300830
	H2111	H	0.448400	0.283402	0.282547
	H2112	H	0.416790	0.124321	0.226960
	H2113	H	0.416817	0.374584	0.272774
	H2114	H	0.333530	0.374543	0.310395
	H2115	H	0.500018	0.124608	0.189416
	H2116	H	0.384878	0.217066	0.217395
	H2117	H	0.364995	0.216787	0.199151
	H2118	H	0.365059	0.283104	0.300827
	H2119	H	0.384959	0.283500	0.282473
	H2120	H	0.365118	0.533092	0.198960
	H2121	H	0.385036	0.533399	0.217237
	H2122	H	0.384919	-0.033159	0.282446
	H2123	H	0.365043	-0.033247	0.300777
	H2124	H	0.448342	-0.033286	0.282522
	H2125	H	0.468255	-0.033547	0.300852
	H2126	H	0.448332	0.533549	0.217102
	H2127	H	0.468250	0.533292	0.198934
	Al2128	Al	0.416690	-0.499903	0.416822
	Al2129	Al	0.416644	-0.249885	0.416844
	Al2130	Al	0.333375	-0.249889	0.333293
	Al2131	Al	0.333399	-0.500112	0.333261
	O2132	O	0.430194	-0.459118	0.432714
	O2133	O	0.416740	-0.374818	0.405889
	O2134	O	0.416640	-0.124846	0.427752
	O2135	O	0.486497	-0.458766	0.484258
	O2136	O	0.403073	-0.459323	0.432588
	O2137	O	0.346816	-0.458877	0.484297
	O2138	O	0.403211	-0.291308	0.432774
	O2139	O	0.403091	-0.209359	0.400959
	O2140	O	0.346892	-0.208997	0.349175
	O2141	O	0.430129	-0.290768	0.432704
	O2142	O	0.430079	-0.209249	0.400902
	O2143	O	0.486471	-0.208890	0.349365
	O2144	O	0.346831	-0.290891	0.484353
	O2145	O	0.403247	-0.041141	0.400818
	O2146	O	0.346847	-0.040778	0.349240
	O2147	O	0.486443	-0.040841	0.349303
	O2148	O	0.430107	-0.040749	0.400886
	O2149	O	0.486475	-0.290719	0.484236
	O2150	O	0.333344	-0.125326	0.489192
	O2151	O	0.499956	-0.375085	0.344376
	C2152	C	0.463911	-0.285589	0.463613
	C2153	C	0.469635	-0.374523	0.468875
	C2154	C	0.463882	-0.463602	0.463691
	C2155	C	0.452674	-0.463812	0.453414
	C2156	C	0.446943	-0.374823	0.448169
	C2157	C	0.452702	-0.285741	0.453349
	C2158	C	0.434903	-0.374790	0.436958
	C2159	C	0.481716	-0.374883	0.480042
	C2160	C	0.398381	-0.375401	0.436929
	C2161	C	0.386339	-0.375007	0.448106
	C2162	C	0.380573	-0.285930	0.453296
	C2163	C	0.369387	-0.285813	0.463564
	C2164	C	0.363609	-0.374848	0.468847
	C2165	C	0.369334	-0.463870	0.463567
	C2166	C	0.380537	-0.464033	0.453323
	C2167	C	0.351601	-0.374967	0.480054
	C2168	C	0.398421	-0.125194	0.396632
	C2169	C	0.386392	-0.124912	0.385444
	C2170	C	0.380623	-0.035560	0.380166
	C2171	C	0.369424	-0.035568	0.369887
	C2172	C	0.363663	-0.124928	0.364688
	C2173	C	0.369406	-0.214238	0.370016
	C2174	C	0.380599	-0.214197	0.380294
	C2175	C	0.351609	-0.124852	0.353473
	C2176	C	0.434861	-0.125097	0.396621
	C2177	C	0.446909	-0.124902	0.385488
	C2178	C	0.452634	-0.214151	0.380163
	C2179	C	0.463863	-0.214015	0.369882
	C2180	C	0.469629	-0.124775	0.364754
	C2181	C	0.463907	-0.035378	0.370077
	C2182	C	0.452694	-0.035633	0.380364
	C2183	C	0.481695	-0.124679	0.353551
	H2184	H	0.468179	-0.283012	0.365754
	H2185	H	0.448287	-0.283526	0.384143
	H2186	H	0.468238	-0.216659	0.467604
	H2187	H	0.448366	-0.216534	0.449268
	H2188	H	0.416892	-0.374198	0.394002
	H2189	H	0.416902	-0.124372	0.439624
	H2190	H	0.333501	-0.125189	0.477238
	H2191	H	0.499923	-0.374704	0.356411
	H2192	H	0.384896	-0.283292	0.384439
	H2193	H	0.365033	-0.283600	0.366057
	H2194	H	0.365053	-0.216586	0.467647
	H2195	H	0.384916	-0.216919	0.449220
	H2196	H	0.365105	0.033525	0.365769
	H2197	H	0.384977	0.033685	0.384154
	H2198	H	0.384862	-0.533042	0.449223
	H2199	H	0.365010	-0.533019	0.467623
	H2200	H	0.448337	-0.532696	0.449445
	H2201	H	0.468207	-0.532473	0.467791
	H2202	H	0.448405	0.033693	0.384436
	H2203	H	0.468240	0.033961	0.366114
	Al2204	Al	0.416622	-0.000039	0.416816
	Al2205	Al	0.416659	0.250121	0.416819
	Al2206	Al	0.333380	0.250092	0.333319
	Al2207	Al	0.333350	0.000092	0.333298
	O2208	O	0.430164	0.040689	0.432681
	O2209	O	0.416627	0.124818	0.405887
	O2210	O	0.416673	0.375174	0.427790
	O2211	O	0.486466	0.040914	0.484225
	O2212	O	0.403120	0.041126	0.432709
	O2213	O	0.346820	0.041551	0.484317
	O2214	O	0.403172	0.209149	0.432748
	O2215	O	0.403142	0.291131	0.400971
	O2216	O	0.346809	0.291748	0.349190
	O2217	O	0.430064	0.208739	0.432831
	O2218	O	0.430181	0.290602	0.401008
	O2219	O	0.486505	0.291001	0.349434
	O2220	O	0.346824	0.209427	0.484443
	O2221	O	0.403268	0.459178	0.400773
	O2222	O	0.346869	0.459570	0.349162
	O2223	O	0.486450	0.459115	0.349369
	O2224	O	0.430122	0.458668	0.400918
	O2225	O	0.486474	0.209128	0.484185
	O2226	O	0.333405	0.375002	0.489318
	O2227	O	0.499993	0.124888	0.344315
	C2228	C	0.463929	0.213983	0.463557
	C2229	C	0.469682	0.124968	0.468797
	C2230	C	0.463918	0.035972	0.463612
	C2231	C	0.452707	0.035992	0.453370
	C2232	C	0.446928	0.124991	0.448176
	C2233	C	0.452710	0.214041	0.453316
	C2234	C	0.434899	0.124658	0.436993
	C2235	C	0.481691	0.124962	0.479955
	C2236	C	0.398368	0.125247	0.436945
	C2237	C	0.386294	0.125086	0.448081
	C2238	C	0.380530	0.214239	0.453279
	C2239	C	0.369339	0.214484	0.463539
	C2240	C	0.363545	0.125470	0.468783
	C2241	C	0.369336	0.036326	0.463638
	C2242	C	0.380537	0.036114	0.453413
	C2243	C	0.351565	0.125723	0.480085
	C2244	C	0.398434	0.375177	0.396604
	C2245	C	0.386391	0.375129	0.385476
	C2246	C	0.380644	0.464139	0.380245
	C2247	C	0.369427	0.464438	0.369944
	C2248	C	0.363634	0.375514	0.364690
	C2249	C	0.369362	0.286535	0.369995
	C2250	C	0.380583	0.286095	0.380292
	C2251	C	0.351618	0.375769	0.353500
	C2252	C	0.434889	0.374663	0.396657
	C2253	C	0.446906	0.374624	0.385449
	C2254	C	0.452638	0.285844	0.380161
	C2255	C	0.463868	0.285917	0.369942
	C2256	C	0.469629	0.375003	0.364755
	C2257	C	0.463883	0.463921	0.370007
	C2258	C	0.452678	0.463773	0.380281
	C2259	C	0.481694	0.374944	0.353625
	H2260	H	0.468216	0.216825	0.365942
	H2261	H	0.448269	0.216831	0.384059
	H2262	H	0.468256	0.283074	0.467541
	H2263	H	0.448385	0.282900	0.449245
	H2264	H	0.416470	0.125324	0.393818
	H2265	H	0.416609	0.375183	0.439746
	H2266	H	0.333506	0.375757	0.477375
	H2267	H	0.500131	0.124924	0.356348
	H2268	H	0.384880	0.217056	0.384353
	H2269	H	0.364960	0.217610	0.366057
	H2270	H	0.365059	0.283453	0.467613
	H2271	H	0.384925	0.283095	0.449286
	H2272	H	0.365155	0.533689	0.365890
	H2273	H	0.384979	0.533308	0.384247
	H2274	H	0.384909	-0.032438	0.449511
	H2275	H	0.365035	-0.032544	0.467797
	H2276	H	0.448395	-0.032985	0.449368
	H2277	H	0.468239	-0.033033	0.467591
	H2278	H	0.448310	0.532706	0.384258
	H2279	H	0.468250	0.532759	0.366012
	Al2280	Al	0.416654	-0.499912	0.583397
	Al2281	Al	0.416609	-0.249998	0.583472
	Al2282	Al	0.333319	-0.250425	0.500165
	Al2283	Al	0.333365	-0.500157	0.500289
	O2284	O	0.430139	-0.458830	0.599294
	O2285	O	0.416536	-0.374881	0.572496
	O2286	O	0.416636	-0.124970	0.594393
	O2287	O	0.486430	-0.459306	0.650921
	O2288	O	0.403169	-0.459017	0.599296
	O2289	O	0.346799	-0.459002	0.651065
	O2290	O	0.403149	-0.290769	0.599402
	O2291	O	0.403136	-0.209001	0.567594
	O2292	O	0.346807	-0.208907	0.516050
	O2293	O	0.430119	-0.290616	0.599334
	O2294	O	0.430091	-0.209568	0.567483
	O2295	O	0.486467	-0.209265	0.516012
	O2296	O	0.346890	-0.290540	0.651077
	O2297	O	0.403180	-0.040892	0.567573
	O2298	O	0.346776	-0.040796	0.516032
	O2299	O	0.486479	-0.041016	0.516024
	O2300	O	0.430138	-0.041249	0.567585
	O2301	O	0.486470	-0.291227	0.650841
	O2302	O	0.333257	-0.125121	0.655874
	O2303	O	0.500129	-0.375204	0.511027
	C2304	C	0.463881	-0.286458	0.630236
	C2305	C	0.469633	-0.375214	0.635434
	C2306	C	0.463862	-0.463956	0.630172
	C2307	C	0.452661	-0.463803	0.619910
	C2308	C	0.446952	-0.374872	0.614654
	C2309	C	0.452692	-0.286163	0.619936
	C2310	C	0.434915	-0.374708	0.603557
	C2311	C	0.481711	-0.375280	0.646561
	C2312	C	0.398446	-0.375265	0.603648
	C2313	C	0.386360	-0.375193	0.614830
	C2314	C	0.380628	-0.286131	0.620090
	C2315	C	0.369424	-0.286058	0.630384
	C2316	C	0.363662	-0.375211	0.635619
	C2317	C	0.369311	-0.464322	0.630203
	C2318	C	0.380530	-0.464295	0.619931
	C2319	C	0.351595	-0.374916	0.646765
	C2320	C	0.398370	-0.124771	0.563370
	C2321	C	0.386342	-0.124501	0.552168
	C2322	C	0.380658	-0.035542	0.546792
	C2323	C	0.369427	-0.035427	0.536534
	C2324	C	0.363617	-0.124452	0.531432
	C2325	C	0.369352	-0.213442	0.536703
	C2326	C	0.380570	-0.213295	0.546961
	C2327	C	0.351568	-0.124686	0.520301
	C2328	C	0.434901	-0.125376	0.563336
	C2329	C	0.446938	-0.125187	0.552138
	C2330	C	0.452638	-0.214361	0.546774
	C2331	C	0.463866	-0.214418	0.536531
	C2332	C	0.469682	-0.125160	0.531471
	C2333	C	0.463951	-0.035897	0.536772
	C2334	C	0.452718	-0.035990	0.546995
	C2335	C	0.481739	-0.125090	0.520286
	H2336	H	0.468161	-0.283710	0.532443
	H2337	H	0.448239	-0.283469	0.550669
	H2338	H	0.468233	-0.217846	0.634249
	H2339	H	0.448411	-0.217349	0.615888
	H2340	H	0.416613	-0.374879	0.560533
	H2341	H	0.416660	-0.125017	0.606398
	H2342	H	0.333164	-0.125652	0.643849
	H2343	H	0.500393	-0.375699	0.523005
	H2344	H	0.384890	-0.282456	0.551086
	H2345	H	0.365032	-0.282607	0.532726
	H2346	H	0.365097	-0.216993	0.634453
	H2347	H	0.385005	-0.217246	0.616105
	H2348	H	0.365164	0.033492	0.532403
	H2349	H	0.385007	0.033519	0.550770
	H2350	H	0.384799	-0.533258	0.615803
	H2351	H	0.364902	-0.533582	0.634092
	H2352	H	0.448337	-0.532528	0.615863
	H2353	H	0.468224	-0.533094	0.634111
	H2354	H	0.448392	0.033016	0.551015
	H2355	H	0.468332	0.033042	0.532911
	Al2356	Al	0.416673	0.000023	0.583454
	Al2357	Al	0.416719	0.249829	0.583489
	Al2358	Al	0.333310	0.249959	0.500240
	Al2359	Al	0.333329	0.000033	0.500134
	O2360	O	0.430182	0.041138	0.599391
	O2361	O	0.416737	0.124926	0.572536
	O2362	O	0.416718	0.375012	0.594432
	O2363	O	0.486557	0.040988	0.650887
	O2364	O	0.403136	0.040990	0.599204
	O2365	O	0.346864	0.040921	0.650986
	O2366	O	0.403236	0.209135	0.599369
	O2367	O	0.403172	0.290234	0.567637
	O2368	O	0.346769	0.290575	0.516176
	O2369	O	0.430164	0.209239	0.599471
	O2370	O	0.430160	0.291037	0.567554
	O2371	O	0.486450	0.290888	0.515927
	O2372	O	0.346826	0.209177	0.650966
	O2373	O	0.403246	0.458483	0.567458
	O2374	O	0.346854	0.458949	0.516067
	O2375	O	0.486507	0.459098	0.515956
	O2376	O	0.430201	0.459275	0.567577
	O2377	O	0.486519	0.209112	0.650864
	O2378	O	0.333330	0.375078	0.655954
	O2379	O	0.499918	0.124861	0.511039
	C2380	C	0.463948	0.213891	0.630307
	C2381	C	0.469693	0.124866	0.635552
	C2382	C	0.463954	0.035923	0.630313
	C2383	C	0.452742	0.035934	0.620091
	C2384	C	0.446981	0.124883	0.614837
	C2385	C	0.452733	0.213832	0.620050
	C2386	C	0.434918	0.125053	0.603710
	C2387	C	0.481755	0.124965	0.646662
	C2388	C	0.398420	0.125145	0.603575
	C2389	C	0.386358	0.125139	0.614751
	C2390	C	0.380656	0.214228	0.620109
	C2391	C	0.369427	0.214120	0.630348
	C2392	C	0.363647	0.125143	0.635488
	C2393	C	0.369375	0.036095	0.630134
	C2394	C	0.380591	0.036136	0.619912
	C2395	C	0.351588	0.125095	0.646644
	C2396	C	0.398441	0.374280	0.563322
	C2397	C	0.386376	0.374555	0.552165
	C2398	C	0.380636	0.463853	0.546876
	C2399	C	0.369433	0.463714	0.536645
	C2400	C	0.363615	0.374603	0.531487
	C2401	C	0.369326	0.285372	0.536809
	C2402	C	0.380530	0.285366	0.547057
	C2403	C	0.351564	0.374670	0.520352
	C2404	C	0.434943	0.375056	0.563321
	C2405	C	0.446970	0.375342	0.552122
	C2406	C	0.452645	0.286292	0.546703
	C2407	C	0.463851	0.286304	0.536458
	C2408	C	0.469657	0.375372	0.531352
	C2409	C	0.464013	0.464503	0.536787
	C2410	C	0.452793	0.464570	0.547049
	C2411	C	0.481697	0.375073	0.520157
	H2412	H	0.468103	0.217139	0.532242
	H2413	H	0.448291	0.217224	0.550614
	H2414	H	0.468306	0.283087	0.634315
	H2415	H	0.448368	0.282578	0.616066
	H2416	H	0.416520	0.124618	0.560582
	H2417	H	0.416911	0.375354	0.606430
	H2418	H	0.333286	0.374929	0.643919
	H2419	H	0.499855	0.124245	0.523093
	H2420	H	0.384836	0.216155	0.551199
	H2421	H	0.364923	0.216437	0.532901
	H2422	H	0.365133	0.282981	0.634470
	H2423	H	0.385026	0.283152	0.616178
	H2424	H	0.365089	0.532799	0.532567
	H2425	H	0.384981	0.532900	0.550847
	H2426	H	0.384906	-0.032942	0.615754
	H2427	H	0.364994	-0.032968	0.634084
	H2428	H	0.448385	-0.033158	0.616136
	H2429	H	0.468314	-0.033080	0.634297
	H2430	H	0.448535	0.533551	0.551230
	H2431	H	0.468408	0.533319	0.532857
	Al2432	Al	0.416702	-0.500155	0.750044
	Al2433	Al	0.416690	-0.250238	0.750154
	Al2434	Al	0.333313	-0.249992	0.666846
	Al2435	Al	0.333254	-0.499820	0.666881
	O2436	O	0.430236	-0.459354	0.765920
	O2437	O	0.416695	-0.375083	0.739121
	O2438	O	0.416661	-0.125056	0.761085
	O2439	O	0.486508	-0.459443	0.817657
	O2440	O	0.403203	-0.459838	0.765952
	O2441	O	0.346777	-0.459389	0.817474
	O2442	O	0.403239	-0.291522	0.765940
	O2443	O	0.403193	-0.209150	0.734238
	O2444	O	0.346791	-0.209153	0.682673
	O2445	O	0.430201	-0.291291	0.766053
	O2446	O	0.430133	-0.208829	0.734175
	O2447	O	0.486554	-0.208640	0.682657
	O2448	O	0.346800	-0.291111	0.817492
	O2449	O	0.403202	-0.040895	0.734256
	O2450	O	0.346814	-0.040788	0.682714
	O2451	O	0.486532	-0.040356	0.682636
	O2452	O	0.430070	-0.040643	0.734220
	O2453	O	0.486533	-0.291317	0.817721
	O2454	O	0.333311	-0.124703	0.822413
	O2455	O	0.499883	-0.375256	0.677617
	C2456	C	0.463865	-0.286302	0.797125
	C2457	C	0.469685	-0.375329	0.802266
	C2458	C	0.464036	-0.464323	0.796861
	C2459	C	0.452820	-0.464271	0.786579
	C2460	C	0.447030	-0.375281	0.781431
	C2461	C	0.452663	-0.286202	0.786847
	C2462	C	0.434966	-0.375387	0.770273
	C2463	C	0.481784	-0.375178	0.813380
	C2464	C	0.398461	-0.375575	0.770239
	C2465	C	0.386372	-0.375627	0.781378
	C2466	C	0.380597	-0.286553	0.786511
	C2467	C	0.369342	-0.286511	0.796737
	C2468	C	0.363610	-0.375468	0.802040
	C2469	C	0.369418	-0.464581	0.796964
	C2470	C	0.380678	-0.464621	0.786732
	C2471	C	0.351542	-0.375188	0.813248
	C2472	C	0.398446	-0.124997	0.730033
	C2473	C	0.386377	-0.124898	0.718788
	C2474	C	0.380581	-0.035790	0.713586
	C2475	C	0.369373	-0.035705	0.703332
	C2476	C	0.363638	-0.124769	0.698093
	C2477	C	0.369396	-0.213782	0.703372
	C2478	C	0.380605	-0.213893	0.713642
	C2479	C	0.351558	-0.125138	0.686935
	C2480	C	0.434865	-0.124778	0.729906
	C2481	C	0.446931	-0.124567	0.718778
	C2482	C	0.452745	-0.213666	0.713619
	C2483	C	0.463994	-0.213316	0.703394
	C2484	C	0.469730	-0.124316	0.698065
	C2485	C	0.463912	-0.035264	0.703233
	C2486	C	0.452675	-0.035562	0.713441
	C2487	C	0.481794	-0.124361	0.686953
	H2488	H	0.468419	-0.282370	0.699538
	H2489	H	0.448435	-0.282832	0.717730
	H2490	H	0.468140	-0.217216	0.801220
	H2491	H	0.448272	-0.217057	0.782916
	H2492	H	0.416786	-0.375334	0.727149
	H2493	H	0.416660	-0.124856	0.773031
	H2494	H	0.333384	-0.125410	0.810450
	H2495	H	0.499896	-0.375253	0.689539
	H2496	H	0.384883	-0.283000	0.717788
	H2497	H	0.365021	-0.282890	0.699388
	H2498	H	0.365029	-0.217344	0.800708
	H2499	H	0.384936	-0.217568	0.782508
	H2500	H	0.365012	0.033404	0.699353
	H2501	H	0.384906	0.033146	0.717693
	H2502	H	0.385090	-0.533775	0.782868
	H2503	H	0.365148	-0.533493	0.801130
	H2504	H	0.448553	-0.533154	0.782445
	H2505	H	0.468448	-0.533300	0.800709
	H2506	H	0.448327	0.033461	0.717388
	H2507	H	0.468248	0.033671	0.699145
	Al2508	Al	0.416641	-0.000041	0.750156
	Al2509	Al	0.416704	0.250110	0.750099
	Al2510	Al	0.333312	0.249993	0.666867
	Al2511	Al	0.333382	0.000177	0.666800
	O2512	O	0.430191	0.040518	0.765995
	O2513	O	0.416714	0.125241	0.739175
	O2514	O	0.416687	0.374890	0.760959
	O2515	O	0.486608	0.040983	0.817495
	O2516	O	0.403193	0.040846	0.766092
	O2517	O	0.346759	0.041168	0.817497
	O2518	O	0.403182	0.209104	0.766038
	O2519	O	0.403250	0.290884	0.734212
	O2520	O	0.346768	0.291343	0.682760
	O2521	O	0.430166	0.209150	0.766039
	O2522	O	0.430180	0.290925	0.734188
	O2523	O	0.486527	0.290442	0.682520
	O2524	O	0.346750	0.209602	0.817463
	O2525	O	0.403185	0.459238	0.734173
	O2526	O	0.346739	0.459658	0.682862
	O2527	O	0.486588	0.458429	0.682585
	O2528	O	0.430249	0.459224	0.734199
	O2529	O	0.486478	0.209226	0.817661
	O2530	O	0.333310	0.375074	0.822397
	O2531	O	0.500090	0.125024	0.677614
	C2532	C	0.463908	0.214106	0.797108
	C2533	C	0.469688	0.124967	0.802236
	C2534	C	0.464003	0.035701	0.796876
	C2535	C	0.452772	0.035703	0.786605
	C2536	C	0.446987	0.124935	0.781477
	C2537	C	0.452678	0.214148	0.786855
	C2538	C	0.434908	0.124960	0.770319
	C2539	C	0.481807	0.125204	0.813315
	C2540	C	0.398411	0.125149	0.770280
	C2541	C	0.386317	0.125136	0.781429
	C2542	C	0.380562	0.214498	0.786635
	C2543	C	0.369317	0.214607	0.796833
	C2544	C	0.363558	0.125488	0.802093
	C2545	C	0.369366	0.036116	0.796979
	C2546	C	0.380601	0.035958	0.786788
	C2547	C	0.351493	0.125359	0.813201
	C2548	C	0.398471	0.374983	0.729932
	C2549	C	0.386365	0.374972	0.718854
	C2550	C	0.380605	0.463924	0.713671
	C2551	C	0.369376	0.463986	0.703437
	C2552	C	0.363600	0.375248	0.698192
	C2553	C	0.369380	0.286252	0.703324
	C2554	C	0.380611	0.286142	0.713577
	C2555	C	0.351544	0.375512	0.687002
	C2556	C	0.434948	0.374963	0.729940
	C2557	C	0.447064	0.374799	0.718835
	C2558	C	0.452757	0.285540	0.713526
	C2559	C	0.463965	0.285396	0.703242
	C2560	C	0.469748	0.374504	0.698038
	C2561	C	0.464022	0.463745	0.703270
	C2562	C	0.452797	0.463939	0.713543
	C2563	C	0.481815	0.374601	0.686814
	H2564	H	0.468232	0.216268	0.699084
	H2565	H	0.448399	0.216529	0.717509
	H2566	H	0.468220	0.283183	0.801184
	H2567	H	0.448296	0.283366	0.782961
	H2568	H	0.416978	0.124326	0.727187
	H2569	H	0.416547	0.375854	0.772869
	H2570	H	0.333555	0.374645	0.810392
	H2571	H	0.499977	0.124965	0.689631
	H2572	H	0.385015	0.217432	0.717496
	H2573	H	0.365101	0.217327	0.699185
	H2574	H	0.364984	0.284113	0.800769
	H2575	H	0.384890	0.283505	0.782543
	H2576	H	0.365057	0.532887	0.699378
	H2577	H	0.384957	0.532625	0.717628
	H2578	H	0.384989	-0.033292	0.782867
	H2579	H	0.365026	-0.033131	0.801065
	H2580	H	0.448466	-0.033398	0.782502
	H2581	H	0.468416	-0.033174	0.800743
	H2582	H	0.448445	0.532815	0.717482
	H2583	H	0.468297	0.532767	0.699156
	Al2584	Al	0.416663	-0.500171	0.916645
	Al2585	Al	0.416686	-0.250108	0.916792
	Al2586	Al	0.333309	-0.249906	0.833386
	Al2587	Al	0.333286	-0.500029	0.833442
	O2588	O	0.430183	-0.459157	0.932570
	O2589	O	0.416663	-0.374956	0.905821
	O2590	O	0.416655	-0.125140	0.927686
	O2591	O	0.486567	-0.458858	0.984090
	O2592	O	0.403133	-0.459667	0.932489
	O2593	O	0.346738	-0.459034	0.984088
	O2594	O	0.403162	-0.291211	0.932569
	O2595	O	0.403140	-0.209525	0.900859
	O2596	O	0.346801	-0.209044	0.849357
	O2597	O	0.430148	-0.290888	0.932729
	O2598	O	0.430154	-0.208822	0.900936
	O2599	O	0.486541	-0.208992	0.849368
	O2600	O	0.346783	-0.290907	0.984155
	O2601	O	0.403179	-0.041294	0.900897
	O2602	O	0.346792	-0.040906	0.849192
	O2603	O	0.486513	-0.040609	0.849363
	O2604	O	0.430082	-0.040694	0.900768
	O2605	O	0.486497	-0.290721	0.984167
	O2606	O	0.333330	-0.124768	0.989041
	O2607	O	0.500043	-0.374963	0.844439
	C2608	C	0.463969	-0.286174	0.963462
	C2609	C	0.469758	-0.374964	0.968644
	C2610	C	0.464010	-0.463992	0.963428
	C2611	C	0.452790	-0.464242	0.953175
	C2612	C	0.447033	-0.375387	0.947958
	C2613	C	0.452737	-0.286258	0.953224
	C2614	C	0.434914	-0.375135	0.936855
	C2615	C	0.481794	-0.374972	0.979872
	C2616	C	0.398377	-0.375477	0.936790
	C2617	C	0.386331	-0.375435	0.947995
	C2618	C	0.380574	-0.286245	0.953210
	C2619	C	0.369360	-0.285968	0.963482
	C2620	C	0.363610	-0.375158	0.968743
	C2621	C	0.369354	-0.464399	0.963547
	C2622	C	0.380584	-0.464581	0.953288
	C2623	C	0.351538	-0.375080	0.979932
	C2624	C	0.398402	-0.125320	0.896596
	C2625	C	0.386373	-0.124860	0.885376
	C2626	C	0.380629	-0.035754	0.880205
	C2627	C	0.369408	-0.035565	0.869927
	C2628	C	0.363651	-0.124592	0.864626
	C2629	C	0.369382	-0.213728	0.869845
	C2630	C	0.380597	-0.213798	0.880118
	C2631	C	0.351570	-0.124801	0.853493
	C2632	C	0.434886	-0.124805	0.896651
	C2633	C	0.446944	-0.125089	0.885487
	C2634	C	0.452670	-0.214376	0.880227
	C2635	C	0.463908	-0.214363	0.869986
	C2636	C	0.469711	-0.125243	0.864816
	C2637	C	0.463978	-0.036089	0.870089
	C2638	C	0.452746	-0.035965	0.880320
	C2639	C	0.481756	-0.124920	0.853634
	H2640	H	0.468221	-0.283418	0.865940
	H2641	H	0.448310	-0.283367	0.884289
	H2642	H	0.468274	-0.217212	0.967469
	H2643	H	0.448335	-0.217386	0.949262
	H2644	H	0.416596	-0.374707	0.893848
	H2645	H	0.416667	-0.125077	0.939609
	H2646	H	0.333221	-0.124878	0.977065
	H2647	H	0.500005	-0.374921	0.856353
	H2648	H	0.384921	-0.282769	0.884136
	H2649	H	0.365059	-0.282626	0.865831
	H2650	H	0.365076	-0.216800	0.967492
	H2651	H	0.384899	-0.217253	0.949161
	H2652	H	0.365077	0.033300	0.865936
	H2653	H	0.384954	0.033048	0.884237
	H2654	H	0.384904	-0.533816	0.949338
	H2655	H	0.365052	-0.533454	0.967691
	H2656	H	0.448469	-0.532988	0.949186
	H2657	H	0.468334	-0.533059	0.967453
	H2658	H	0.448464	0.032996	0.884410
	H2659	H	0.468331	0.033196	0.866148
	Al2660	Al	0.416625	0.000027	0.916767
	Al2661	Al	0.416668	0.249754	0.916785
	Al2662	Al	0.333237	0.250080	0.833380
	Al2663	Al	0.333256	0.000333	0.833353
	O2664	O	0.430147	0.041256	0.932611
	O2665	O	0.416610	0.125145	0.905829
	O2666	O	0.416688	0.375061	0.927596
	O2667	O	0.486641	0.041555	0.984013
	O2668	O	0.403193	0.040861	0.932701
	O2669	O	0.346780	0.041317	0.984113
	O2670	O	0.403202	0.209040	0.932602
	O2671	O	0.403168	0.290623	0.900895
	O2672	O	0.346812	0.290679	0.849233
	O2673	O	0.430115	0.209524	0.932748
	O2674	O	0.430163	0.290740	0.900910
	O2675	O	0.486577	0.291256	0.849411
	O2676	O	0.346780	0.209500	0.984135
	O2677	O	0.403217	0.458735	0.900832
	O2678	O	0.346773	0.458929	0.849258
	O2679	O	0.486526	0.459624	0.849412
	O2680	O	0.430138	0.459082	0.900769
	O2681	O	0.486555	0.209732	0.984079
	O2682	O	0.333234	0.374992	0.989059
	O2683	O	0.500040	0.125180	0.844358
	C2684	C	0.463996	0.214009	0.963463
	C2685	C	0.469761	0.125142	0.968686
	C2686	C	0.464025	0.036013	0.963451
	C2687	C	0.452768	0.035675	0.953261
	C2688	C	0.446997	0.124781	0.948063
	C2689	C	0.452760	0.213749	0.953282
	C2690	C	0.434912	0.125205	0.936911
	C2691	C	0.481833	0.125393	0.979831
	C2692	C	0.398428	0.125150	0.936880
	C2693	C	0.386400	0.125448	0.948092
	C2694	C	0.380593	0.214573	0.953215
	C2695	C	0.369345	0.214786	0.963450
	C2696	C	0.363609	0.125672	0.968731
	C2697	C	0.369403	0.036638	0.963567
	C2698	C	0.380651	0.036524	0.953354
	C2699	C	0.351527	0.125412	0.979844
	C2700	C	0.398443	0.374695	0.896633
	C2701	C	0.386336	0.374654	0.885463
	C2702	C	0.380589	0.463630	0.880231
	C2703	C	0.369373	0.463744	0.869969
	C2704	C	0.363618	0.374810	0.864667
	C2705	C	0.369385	0.285875	0.869868
	C2706	C	0.380597	0.285735	0.880157
	C2707	C	0.351562	0.374907	0.853493
	C2708	C	0.434906	0.374859	0.896569
	C2709	C	0.446961	0.375158	0.885452
	C2710	C	0.452733	0.286084	0.880218
	C2711	C	0.463963	0.286043	0.869993
	C2712	C	0.469706	0.375314	0.864775
	C2713	C	0.463965	0.464506	0.870091
	C2714	C	0.452746	0.464551	0.880338
	C2715	C	0.481756	0.375254	0.853584
	H2716	H	0.468314	0.216860	0.865961
	H2717	H	0.448375	0.217059	0.884133
	H2718	H	0.468318	0.283133	0.967396
	H2719	H	0.448405	0.283001	0.949275
	H2720	H	0.416536	0.125226	0.893800
	H2721	H	0.416695	0.375493	0.939577
	H2722	H	0.333211	0.375101	0.977076
	H2723	H	0.500045	0.125160	0.856396
	H2724	H	0.384961	0.216875	0.884088
	H2725	H	0.365059	0.216898	0.865799
	H2726	H	0.364930	0.283801	0.967305
	H2727	H	0.384906	0.283497	0.949104
	H2728	H	0.365035	0.533072	0.866010
	H2729	H	0.384930	0.532333	0.884253
	H2730	H	0.384997	-0.032421	0.949355
	H2731	H	0.365060	-0.032544	0.967511
	H2732	H	0.448429	-0.033380	0.949223
	H2733	H	0.468396	-0.032795	0.967402
	H2734	H	0.448394	0.533711	0.884377
	H2735	H	0.468338	0.533674	0.866144
	Al2736	Al	0.583356	-0.500187	0.083260
	Al2737	Al	0.583325	-0.250057	0.083291
	Al2738	Al	0.500048	-0.249852	-0.000028
	Al2739	Al	0.500053	-0.499841	-0.000022
	O2740	O	0.596845	-0.458543	0.099148
	O2741	O	0.583360	-0.374880	0.072314
	O2742	O	0.583322	-0.125020	0.094184
	O2743	O	0.653144	-0.459051	0.150886
	O2744	O	0.569782	-0.459659	0.099078
	O2745	O	0.513517	-0.459376	0.150707
	O2746	O	0.569821	-0.291295	0.099002
	O2747	O	0.569926	-0.209155	0.067327
	O2748	O	0.513560	-0.209501	0.015874
	O2749	O	0.596841	-0.290288	0.099234
	O2750	O	0.596818	-0.209429	0.067418
	O2751	O	0.653268	-0.209146	0.015948
	O2752	O	0.513500	-0.291136	0.150742
	O2753	O	0.569906	-0.041070	0.067355
	O2754	O	0.513517	-0.041419	0.015818
	O2755	O	0.653199	-0.040805	0.015795
	O2756	O	0.596778	-0.041234	0.067202
	O2757	O	0.653193	-0.290953	0.150810
	O2758	O	0.500003	-0.124859	0.155607
	O2759	O	0.666678	-0.374835	0.010889
	C2760	C	0.630612	-0.285740	0.130173
	C2761	C	0.636395	-0.375150	0.135348
	C2762	C	0.630602	-0.464418	0.130146
	C2763	C	0.619398	-0.464428	0.119828
	C2764	C	0.613629	-0.374915	0.114623
	C2765	C	0.619391	-0.285630	0.119893
	C2766	C	0.601591	-0.374566	0.103440
	C2767	C	0.648413	-0.374886	0.146599
	C2768	C	0.565042	-0.375426	0.103267
	C2769	C	0.553001	-0.375063	0.114483
	C2770	C	0.547329	-0.285920	0.119832
	C2771	C	0.536140	-0.285909	0.130133
	C2772	C	0.530320	-0.374934	0.135284
	C2773	C	0.536061	-0.464064	0.130061
	C2774	C	0.547238	-0.464143	0.119733
	C2775	C	0.518249	-0.375222	0.146434
	C2776	C	0.565141	-0.125228	0.063077
	C2777	C	0.553091	-0.125009	0.051949
	C2778	C	0.547309	-0.035683	0.046773
	C2779	C	0.536057	-0.035679	0.036539
	C2780	C	0.530329	-0.124924	0.031261
	C2781	C	0.536129	-0.214220	0.036384
	C2782	C	0.547368	-0.214104	0.046613
	C2783	C	0.518276	-0.125372	0.020092
	C2784	C	0.601564	-0.125590	0.063069
	C2785	C	0.613627	-0.125481	0.051911
	C2786	C	0.619484	-0.214535	0.046840
	C2787	C	0.630719	-0.214430	0.036600
	C2788	C	0.636429	-0.125324	0.031310
	C2789	C	0.630578	-0.036417	0.036410
	C2790	C	0.619329	-0.036435	0.046622
	C2791	C	0.648476	-0.125124	0.020115
	H2792	H	0.635153	-0.283320	0.032668
	H2793	H	0.615190	-0.283702	0.050919
	H2794	H	0.634935	-0.216472	0.134275
	H2795	H	0.615020	-0.216465	0.115888
	H2796	H	0.583541	-0.374527	0.060357
	H2797	H	0.583272	-0.124697	0.106146
	H2798	H	0.499875	-0.124585	0.143657
	H2799	H	0.666560	-0.374761	0.022796
	H2800	H	0.551772	-0.283316	0.050503
	H2801	H	0.531846	-0.283208	0.032287
	H2802	H	0.531849	-0.216946	0.134188
	H2803	H	0.551727	-0.217022	0.115863
	H2804	H	0.531715	0.033354	0.032566
	H2805	H	0.551653	0.033548	0.050820
	H2806	H	0.551545	-0.533184	0.115647
	H2807	H	0.531691	-0.533063	0.134019
	H2808	H	0.615019	-0.533516	0.115856
	H2809	H	0.634881	-0.533450	0.134241
	H2810	H	0.614942	0.032794	0.050510
	H2811	H	0.634845	0.032715	0.032372
	Al2812	Al	0.583367	-0.000225	0.083252
	Al2813	Al	0.583398	0.250077	0.083254
	Al2814	Al	0.500045	0.250181	-0.000019
	Al2815	Al	0.500103	0.000128	-0.000117
	O2816	O	0.596857	0.040978	0.099060
	O2817	O	0.583453	0.125057	0.072263
	O2818	O	0.583451	0.375118	0.094217
	O2819	O	0.653157	0.040905	0.150970
	O2820	O	0.569892	0.041159	0.099077
	O2821	O	0.513501	0.040731	0.150618
	O2822	O	0.569867	0.209386	0.099057
	O2823	O	0.569950	0.290613	0.067260
	O2824	O	0.513494	0.290790	0.015911
	O2825	O	0.596847	0.209163	0.099225
	O2826	O	0.596880	0.291179	0.067410
	O2827	O	0.653230	0.291101	0.015835
	O2828	O	0.513571	0.209141	0.150713
	O2829	O	0.569936	0.458544	0.067371
	O2830	O	0.513544	0.458812	0.015813
	O2831	O	0.653231	0.459264	0.015780
	O2832	O	0.596876	0.459597	0.067367
	O2833	O	0.653185	0.208952	0.150847
	O2834	O	0.500047	0.374907	0.155674
	O2835	O	0.666766	0.125037	0.011017
	C2836	C	0.630553	0.213963	0.130285
	C2837	C	0.636356	0.124787	0.135439
	C2838	C	0.630627	0.035599	0.130134
	C2839	C	0.619442	0.035676	0.119815
	C2840	C	0.613637	0.124825	0.114664
	C2841	C	0.619359	0.213985	0.119988
	C2842	C	0.601609	0.124824	0.103387
	C2843	C	0.648433	0.124928	0.146643
	C2844	C	0.565107	0.125070	0.103310
	C2845	C	0.553058	0.125123	0.114498
	C2846	C	0.547337	0.214150	0.119786
	C2847	C	0.536114	0.214104	0.130068
	C2848	C	0.530341	0.124999	0.135248
	C2849	C	0.536009	0.035907	0.129889
	C2850	C	0.547249	0.035905	0.119631
	C2851	C	0.518302	0.125037	0.146419
	C2852	C	0.565166	0.374784	0.063063
	C2853	C	0.553109	0.374801	0.051918
	C2854	C	0.547341	0.463933	0.046735
	C2855	C	0.536118	0.463759	0.036478
	C2856	C	0.530394	0.374732	0.031197
	C2857	C	0.536140	0.285748	0.036438
	C2858	C	0.547356	0.285811	0.046698
	C2859	C	0.518297	0.374875	0.020075
	C2860	C	0.601630	0.375332	0.063127
	C2861	C	0.613686	0.374998	0.051944
	C2862	C	0.619492	0.286172	0.046780
	C2863	C	0.630688	0.286336	0.036503
	C2864	C	0.636400	0.375358	0.031261
	C2865	C	0.630593	0.464228	0.036384
	C2866	C	0.619369	0.464190	0.046665
	C2867	C	0.648460	0.375105	0.020078
	H2868	H	0.635012	0.217467	0.032519
	H2869	H	0.615154	0.217111	0.050850
	H2870	H	0.634871	0.282762	0.134413
	H2871	H	0.615058	0.283248	0.115926
	H2872	H	0.583649	0.124891	0.060321
	H2873	H	0.583505	0.375556	0.106195
	H2874	H	0.500252	0.374887	0.143796
	H2875	H	0.666630	0.125260	0.022948
	H2876	H	0.551682	0.216656	0.050763
	H2877	H	0.531809	0.216567	0.032429
	H2878	H	0.531837	0.283230	0.134170
	H2879	H	0.551682	0.283283	0.115768
	H2880	H	0.531746	0.532860	0.032446
	H2881	H	0.551623	0.533109	0.050798
	H2882	H	0.551539	-0.033172	0.115507
	H2883	H	0.531625	-0.033392	0.133797
	H2884	H	0.615191	-0.033447	0.115589
	H2885	H	0.634978	-0.033578	0.134126
	H2886	H	0.615001	0.533043	0.050631
	H2887	H	0.634917	0.533061	0.032321
	Al2888	Al	0.583307	-0.500241	0.250134
	Al2889	Al	0.583251	-0.250194	0.250103
	Al2890	Al	0.500013	-0.250315	0.166538
	Al2891	Al	0.500046	-0.500256	0.166659
	O2892	O	0.596704	-0.459150	0.266048
	O2893	O	0.583255	-0.375098	0.239181
	O2894	O	0.583297	-0.125042	0.261025
	O2895	O	0.653112	-0.458832	0.317439
	O2896	O	0.569823	-0.459241	0.266050
	O2897	O	0.513463	-0.459061	0.317528
	O2898	O	0.569812	-0.290914	0.265967
	O2899	O	0.569813	-0.209174	0.234209
	O2900	O	0.513450	-0.208990	0.182488
	O2901	O	0.596719	-0.291030	0.265996
	O2902	O	0.596710	-0.208668	0.234174
	O2903	O	0.653105	-0.209344	0.182651
	O2904	O	0.513463	-0.290804	0.317600
	O2905	O	0.569793	-0.040974	0.234232
	O2906	O	0.513468	-0.040694	0.182551
	O2907	O	0.653162	-0.041234	0.182770
	O2908	O	0.596792	-0.040679	0.234221
	O2909	O	0.653177	-0.290898	0.317390
	O2910	O	0.499902	-0.125005	0.322454
	O2911	O	0.666585	-0.374825	0.177709
	C2912	C	0.630598	-0.285803	0.296710
	C2913	C	0.636284	-0.374768	0.302118
	C2914	C	0.630497	-0.464038	0.296980
	C2915	C	0.619268	-0.464189	0.286769
	C2916	C	0.613545	-0.375153	0.281424
	C2917	C	0.619371	-0.285900	0.286485
	C2918	C	0.601476	-0.375013	0.270300
	C2919	C	0.648382	-0.375049	0.313202
	C2920	C	0.565056	-0.375120	0.270298
	C2921	C	0.552975	-0.375187	0.281440
	C2922	C	0.547267	-0.285971	0.286692
	C2923	C	0.536032	-0.285662	0.296952
	C2924	C	0.530274	-0.374971	0.302128
	C2925	C	0.535967	-0.464330	0.296838
	C2926	C	0.547198	-0.464629	0.286560
	C2927	C	0.518219	-0.374903	0.313332
	C2928	C	0.565074	-0.125153	0.229906
	C2929	C	0.553006	-0.125289	0.218718
	C2930	C	0.547216	-0.036236	0.213602
	C2931	C	0.535976	-0.036019	0.203319
	C2932	C	0.530296	-0.125100	0.197935
	C2933	C	0.536085	-0.214118	0.203057
	C2934	C	0.547325	-0.214298	0.213329
	C2935	C	0.518203	-0.124994	0.186779
	C2936	C	0.601491	-0.124856	0.229920
	C2937	C	0.613574	-0.125075	0.218793
	C2938	C	0.619293	-0.214052	0.213475
	C2939	C	0.630518	-0.213907	0.203225
	C2940	C	0.636335	-0.124829	0.198078
	C2941	C	0.630673	-0.035778	0.203474
	C2942	C	0.619447	-0.036050	0.213721
	C2943	C	0.648348	-0.125321	0.186971
	H2944	H	0.634795	-0.282888	0.199066
	H2945	H	0.614881	-0.282968	0.217391
	H2946	H	0.634950	-0.216514	0.300602
	H2947	H	0.615095	-0.216912	0.282280
	H2948	H	0.583277	-0.375679	0.227295
	H2949	H	0.583306	-0.125631	0.273052
	H2950	H	0.499752	-0.125142	0.310466
	H2951	H	0.666445	-0.375116	0.189648
	H2952	H	0.551684	-0.283561	0.217225
	H2953	H	0.531792	-0.283149	0.198953
	H2954	H	0.531803	-0.216410	0.301063
	H2955	H	0.551604	-0.216735	0.282664
	H2956	H	0.531640	0.032999	0.199378
	H2957	H	0.551487	0.032596	0.217737
	H2958	H	0.551484	-0.534104	0.282513
	H2959	H	0.531628	-0.533274	0.300907
	H2960	H	0.614956	-0.533376	0.282801
	H2961	H	0.634854	-0.532944	0.301065
	H2962	H	0.615158	0.033087	0.217845
	H2963	H	0.635073	0.033253	0.199596
	Al2964	Al	0.583309	-0.000224	0.250093
	Al2965	Al	0.583344	0.249673	0.250065
	Al2966	Al	0.500009	0.249910	0.166567
	Al2967	Al	0.500057	0.000134	0.166541
	O2968	O	0.596756	0.040750	0.266039
	O2969	O	0.583204	0.124937	0.239168
	O2970	O	0.583312	0.374587	0.261036
	O2971	O	0.653095	0.040827	0.317492
	O2972	O	0.569845	0.040700	0.266004
	O2973	O	0.513387	0.041043	0.317411
	O2974	O	0.569829	0.208744	0.266043
	O2975	O	0.569857	0.290865	0.234096
	O2976	O	0.513512	0.290834	0.182494
	O2977	O	0.596821	0.209056	0.265866
	O2978	O	0.596798	0.291331	0.234237
	O2979	O	0.653052	0.291102	0.182586
	O2980	O	0.513474	0.209226	0.317530
	O2981	O	0.569797	0.458995	0.234242
	O2982	O	0.513538	0.459017	0.182470
	O2983	O	0.653214	0.459224	0.182742
	O2984	O	0.596801	0.459323	0.234230
	O2985	O	0.653161	0.209043	0.317492
	O2986	O	0.499913	0.374969	0.322477
	O2987	O	0.666593	0.124972	0.177749
	C2988	C	0.630586	0.214070	0.296789
	C2989	C	0.636311	0.125040	0.302062
	C2990	C	0.630492	0.036014	0.296984
	C2991	C	0.619274	0.036063	0.286736
	C2992	C	0.613582	0.125080	0.281384
	C2993	C	0.619378	0.214113	0.286534
	C2994	C	0.601535	0.124965	0.270235
	C2995	C	0.648378	0.124958	0.313244
	C2996	C	0.565069	0.124514	0.270280
	C2997	C	0.553012	0.124713	0.281449
	C2998	C	0.547274	0.213808	0.286674
	C2999	C	0.536033	0.213947	0.296919
	C3000	C	0.530249	0.125002	0.302089
	C3001	C	0.535963	0.035743	0.296871
	C3002	C	0.547204	0.035703	0.286626
	C3003	C	0.518173	0.124989	0.313203
	C3004	C	0.565091	0.375027	0.229884
	C3005	C	0.552999	0.374918	0.218725
	C3006	C	0.547224	0.464350	0.213568
	C3007	C	0.536030	0.464439	0.203257
	C3008	C	0.530311	0.375164	0.197932
	C3009	C	0.536034	0.285949	0.203175
	C3010	C	0.547249	0.285857	0.213450
	C3011	C	0.518250	0.374933	0.186753
	C3012	C	0.601568	0.375272	0.229984
	C3013	C	0.613624	0.375478	0.218827
	C3014	C	0.619259	0.286612	0.213372
	C3015	C	0.630439	0.286649	0.203090
	C3016	C	0.636297	0.375528	0.198042
	C3017	C	0.630617	0.464537	0.203411
	C3018	C	0.619426	0.464468	0.213697
	C3019	C	0.648377	0.375335	0.186939
	H3020	H	0.634689	0.217806	0.198865
	H3021	H	0.614853	0.217336	0.217248
	H3022	H	0.634937	0.282951	0.300858
	H3023	H	0.615068	0.283154	0.282490
	H3024	H	0.583075	0.124224	0.227235
	H3025	H	0.583428	0.373813	0.272980
	H3026	H	0.499942	0.374998	0.310498
	H3027	H	0.666486	0.124842	0.189742
	H3028	H	0.551579	0.216682	0.217464
	H3029	H	0.531675	0.216904	0.199206
	H3030	H	0.531688	0.283125	0.300886
	H3031	H	0.551623	0.282988	0.282675
	H3032	H	0.531632	0.533730	0.199328
	H3033	H	0.551539	0.533369	0.217612
	H3034	H	0.551530	-0.033323	0.282611
	H3035	H	0.531617	-0.033288	0.300771
	H3036	H	0.614875	-0.032744	0.282814
	H3037	H	0.634786	-0.033013	0.301077
	H3038	H	0.615111	0.533075	0.217854
	H3039	H	0.634997	0.533486	0.199491
	Al3040	Al	0.583263	-0.500011	0.416825
	Al3041	Al	0.583249	-0.250135	0.416793
	Al3042	Al	0.499904	-0.250084	0.333487
	Al3043	Al	0.499959	-0.499736	0.333450
	O3044	O	0.596745	-0.458892	0.432715
	O3045	O	0.583220	-0.375120	0.405872
	O3046	O	0.583282	-0.125017	0.427702
	O3047	O	0.653106	-0.459510	0.484183
	O3048	O	0.569810	-0.459251	0.432755
	O3049	O	0.513417	-0.458905	0.484215
	O3050	O	0.569803	-0.291178	0.432734
	O3051	O	0.569725	-0.209222	0.400971
	O3052	O	0.513344	-0.208894	0.349396
	O3053	O	0.596733	-0.290604	0.432683
	O3054	O	0.596696	-0.209205	0.400831
	O3055	O	0.653106	-0.209392	0.349237
	O3056	O	0.513446	-0.290706	0.484200
	O3057	O	0.569788	-0.041184	0.400902
	O3058	O	0.513448	-0.040796	0.349300
	O3059	O	0.653115	-0.041012	0.349317
	O3060	O	0.596713	-0.041151	0.400858
	O3061	O	0.653199	-0.291159	0.484064
	O3062	O	0.500014	-0.125068	0.489178
	O3063	O	0.666615	-0.375243	0.344252
	C3064	C	0.630602	-0.285853	0.463520
	C3065	C	0.636324	-0.374961	0.468742
	C3066	C	0.630576	-0.464159	0.463565
	C3067	C	0.619308	-0.464068	0.453354
	C3068	C	0.613569	-0.374906	0.448123
	C3069	C	0.619339	-0.285712	0.453301
	C3070	C	0.601494	-0.374588	0.436971
	C3071	C	0.648389	-0.375234	0.479872
	C3072	C	0.565030	-0.375266	0.436952
	C3073	C	0.552970	-0.375274	0.448121
	C3074	C	0.547215	-0.286104	0.453320
	C3075	C	0.536004	-0.285873	0.463576
	C3076	C	0.530243	-0.374946	0.468825
	C3077	C	0.536001	-0.464172	0.463621
	C3078	C	0.547214	-0.464270	0.453379
	C3079	C	0.518192	-0.374870	0.479938
	C3080	C	0.565006	-0.125123	0.396636
	C3081	C	0.552973	-0.125366	0.385445
	C3082	C	0.547250	-0.036141	0.380097
	C3083	C	0.536036	-0.036056	0.369865
	C3084	C	0.530208	-0.125348	0.364760
	C3085	C	0.535931	-0.214592	0.370059
	C3086	C	0.547143	-0.214602	0.380310
	C3087	C	0.518162	-0.125027	0.353599
	C3088	C	0.601483	-0.125293	0.396593
	C3089	C	0.613534	-0.124937	0.385416
	C3090	C	0.619332	-0.213882	0.380204
	C3091	C	0.630561	-0.213832	0.369932
	C3092	C	0.636297	-0.124929	0.364728
	C3093	C	0.630550	-0.035811	0.369993
	C3094	C	0.619315	-0.035961	0.380244
	C3095	C	0.648355	-0.125025	0.353551
	H3096	H	0.634874	-0.283057	0.365869
	H3097	H	0.614989	-0.283390	0.384172
	H3098	H	0.634964	-0.216713	0.467477
	H3099	H	0.615019	-0.216515	0.449361
	H3100	H	0.583412	-0.374690	0.393932
	H3101	H	0.583372	-0.125540	0.439614
	H3102	H	0.500131	-0.125037	0.477161
	H3103	H	0.666702	-0.375253	0.356120
	H3104	H	0.551440	-0.283554	0.384379
	H3105	H	0.531566	-0.283638	0.366125
	H3106	H	0.531672	-0.216644	0.467514
	H3107	H	0.551557	-0.217253	0.449189
	H3108	H	0.531742	0.033279	0.365744
	H3109	H	0.551632	0.032913	0.384039
	H3110	H	0.551535	-0.533639	0.449355
	H3111	H	0.531636	-0.533099	0.467626
	H3112	H	0.614964	-0.532913	0.449409
	H3113	H	0.634863	-0.533425	0.467521
	H3114	H	0.614998	0.032805	0.384323
	H3115	H	0.634895	0.033179	0.366044
	Al3116	Al	0.583262	-0.000194	0.416810
	Al3117	Al	0.583263	0.250122	0.416812
	Al3118	Al	0.499955	0.249924	0.333427
	Al3119	Al	0.499958	-0.000127	0.333374
	O3120	O	0.596776	0.040771	0.432660
	O3121	O	0.583291	0.124734	0.405872
	O3122	O	0.583288	0.374840	0.427778
	O3123	O	0.653087	0.040752	0.484282
	O3124	O	0.569804	0.041034	0.432671
	O3125	O	0.513354	0.041279	0.484125
	O3126	O	0.569741	0.209148	0.432678
	O3127	O	0.569766	0.290895	0.400925
	O3128	O	0.513393	0.291034	0.349358
	O3129	O	0.596784	0.209162	0.432704
	O3130	O	0.596734	0.290912	0.400841
	O3131	O	0.653102	0.290755	0.349321
	O3132	O	0.513458	0.209466	0.484214
	O3133	O	0.569822	0.459034	0.400865
	O3134	O	0.513482	0.458965	0.349226
	O3135	O	0.653116	0.458897	0.349304
	O3136	O	0.596710	0.459072	0.400908
	O3137	O	0.653183	0.208748	0.484174
	O3138	O	0.499839	0.375058	0.489138
	O3139	O	0.666652	0.125110	0.344304
	C3140	C	0.630626	0.214132	0.463434
	C3141	C	0.636324	0.124948	0.468791
	C3142	C	0.630569	0.035892	0.463503
	C3143	C	0.619358	0.036070	0.453258
	C3144	C	0.613599	0.125212	0.448053
	C3145	C	0.619413	0.214253	0.453185
	C3146	C	0.601526	0.124897	0.436902
	C3147	C	0.648361	0.124736	0.479972
	C3148	C	0.564996	0.124988	0.436923
	C3149	C	0.552960	0.124982	0.448100
	C3150	C	0.547172	0.214150	0.453258
	C3151	C	0.535944	0.214302	0.463525
	C3152	C	0.530207	0.125195	0.468778
	C3153	C	0.535980	0.036013	0.463600
	C3154	C	0.547210	0.035919	0.453348
	C3155	C	0.518185	0.125065	0.479937
	C3156	C	0.565045	0.374873	0.396607
	C3157	C	0.552986	0.374929	0.385415
	C3158	C	0.547306	0.464059	0.380063
	C3159	C	0.536076	0.463965	0.369834
	C3160	C	0.530249	0.374932	0.364736
	C3161	C	0.535858	0.285853	0.370170
	C3162	C	0.547101	0.285875	0.380402
	C3163	C	0.518195	0.375004	0.353564
	C3164	C	0.601466	0.375086	0.396599
	C3165	C	0.613533	0.375199	0.385467
	C3166	C	0.619258	0.286010	0.380239
	C3167	C	0.630475	0.285975	0.369968
	C3168	C	0.636270	0.375007	0.364778
	C3169	C	0.630542	0.464054	0.370010
	C3170	C	0.619321	0.464234	0.380273
	C3171	C	0.648334	0.374830	0.353602
	H3172	H	0.634765	0.216886	0.365952
	H3173	H	0.614861	0.217142	0.384212
	H3174	H	0.635010	0.283300	0.467384
	H3175	H	0.615136	0.283185	0.449005
	H3176	H	0.583092	0.125041	0.393929
	H3177	H	0.583442	0.374991	0.439727
	H3178	H	0.499716	0.375332	0.477192
	H3179	H	0.666807	0.125129	0.356275
	H3180	H	0.551299	0.216598	0.384627
	H3181	H	0.531444	0.216462	0.366306
	H3182	H	0.531623	0.283189	0.467553
	H3183	H	0.551483	0.283337	0.449204
	H3184	H	0.531767	0.533123	0.365741
	H3185	H	0.551697	0.533076	0.383935
	H3186	H	0.551584	-0.033244	0.449381
	H3187	H	0.531681	-0.033308	0.467712
	H3188	H	0.615060	-0.033143	0.449179
	H3189	H	0.634898	-0.033213	0.467493
	H3190	H	0.615026	0.533425	0.384299
	H3191	H	0.634952	0.532907	0.366085
	Al3192	Al	0.583282	-0.500180	0.583513
	Al3193	Al	0.583294	-0.250240	0.583438
	Al3194	Al	0.499937	-0.250040	0.500148
	Al3195	Al	0.499964	-0.500155	0.500087
	O3196	O	0.596750	-0.459099	0.599369
	O3197	O	0.583219	-0.375259	0.572507
	O3198	O	0.583404	-0.125085	0.594276
	O3199	O	0.653191	-0.459160	0.650815
	O3200	O	0.569837	-0.459064	0.599433
	O3201	O	0.513397	-0.459339	0.650749
	O3202	O	0.569816	-0.290826	0.599343
	O3203	O	0.569770	-0.209263	0.567586
	O3204	O	0.513444	-0.208941	0.515977
	O3205	O	0.596796	-0.291054	0.599288
	O3206	O	0.596722	-0.209466	0.567447
	O3207	O	0.653167	-0.209965	0.515885
	O3208	O	0.513404	-0.291166	0.650841
	O3209	O	0.569867	-0.041086	0.567447
	O3210	O	0.513449	-0.040657	0.515978
	O3211	O	0.653231	-0.041646	0.516089
	O3212	O	0.596792	-0.041197	0.567477
	O3213	O	0.653194	-0.291022	0.650783
	O3214	O	0.499995	-0.125176	0.655794
	O3215	O	0.666747	-0.374960	0.510955
	C3216	C	0.630592	-0.285957	0.630213
	C3217	C	0.636355	-0.375140	0.635410
	C3218	C	0.630590	-0.464205	0.630128
	C3219	C	0.619367	-0.464302	0.619894
	C3220	C	0.613590	-0.375122	0.614738
	C3221	C	0.619368	-0.285995	0.619974
	C3222	C	0.601526	-0.374866	0.603621
	C3223	C	0.648399	-0.375027	0.646600
	C3224	C	0.565059	-0.374959	0.603579
	C3225	C	0.552993	-0.374987	0.614748
	C3226	C	0.547233	-0.286024	0.620000
	C3227	C	0.536001	-0.286099	0.630228
	C3228	C	0.530211	-0.375101	0.635386
	C3229	C	0.535958	-0.464168	0.630095
	C3230	C	0.547206	-0.464086	0.619859
	C3231	C	0.518177	-0.375111	0.646595
	C3232	C	0.565049	-0.125270	0.563273
	C3233	C	0.552971	-0.125268	0.552170
	C3234	C	0.547269	-0.036110	0.546878
	C3235	C	0.536031	-0.035991	0.536623
	C3236	C	0.530234	-0.125019	0.531467
	C3237	C	0.535969	-0.214172	0.536747
	C3238	C	0.547199	-0.214327	0.547011
	C3239	C	0.518210	-0.124905	0.520217
	C3240	C	0.601489	-0.125559	0.563191
	C3241	C	0.613574	-0.125649	0.552031
	C3242	C	0.619273	-0.214892	0.546727
	C3243	C	0.630524	-0.214902	0.536520
	C3244	C	0.636312	-0.125758	0.531324
	C3245	C	0.630624	-0.036496	0.536644
	C3246	C	0.619380	-0.036453	0.546853
	C3247	C	0.648427	-0.125849	0.520275
	H3248	H	0.634852	-0.283834	0.532481
	H3249	H	0.614905	-0.283952	0.550689
	H3250	H	0.634908	-0.217062	0.634283
	H3251	H	0.614999	-0.216855	0.615998
	H3252	H	0.583131	-0.375626	0.560516
	H3253	H	0.583649	-0.125179	0.606276
	H3254	H	0.500042	-0.124747	0.643792
	H3255	H	0.667043	-0.374708	0.522891
	H3256	H	0.551548	-0.283654	0.551021
	H3257	H	0.531655	-0.283534	0.532718
	H3258	H	0.531731	-0.217115	0.634357
	H3259	H	0.551620	-0.216932	0.616081
	H3260	H	0.531728	0.033076	0.532608
	H3261	H	0.551611	0.033018	0.550895
	H3262	H	0.551542	-0.533090	0.615818
	H3263	H	0.531635	-0.533264	0.634100
	H3264	H	0.614971	-0.533785	0.615901
	H3265	H	0.634922	-0.533317	0.634194
	H3266	H	0.615069	0.032580	0.550955
	H3267	H	0.635008	0.032576	0.532731
	Al3268	Al	0.583338	-0.000389	0.583328
	Al3269	Al	0.583351	0.249873	0.583378
	Al3270	Al	0.499979	0.250112	0.500112
	Al3271	Al	0.499955	0.000117	0.500086
	O3272	O	0.596825	0.040709	0.599307
	O3273	O	0.583345	0.124928	0.572421
	O3274	O	0.583378	0.374809	0.594354
	O3275	O	0.653178	0.040470	0.650877
	O3276	O	0.569877	0.040647	0.599177
	O3277	O	0.513526	0.040231	0.650810
	O3278	O	0.569859	0.208691	0.599338
	O3279	O	0.569867	0.290831	0.567597
	O3280	O	0.513419	0.291051	0.516029
	O3281	O	0.596866	0.208928	0.599212
	O3282	O	0.596757	0.291405	0.567387
	O3283	O	0.653048	0.290939	0.515798
	O3284	O	0.513524	0.208649	0.650798
	O3285	O	0.569774	0.459056	0.567625
	O3286	O	0.513493	0.459066	0.515870
	O3287	O	0.653170	0.459321	0.515875
	O3288	O	0.596838	0.459672	0.567614
	O3289	O	0.653208	0.208531	0.650974
	O3290	O	0.500024	0.375027	0.655670
	O3291	O	0.666612	0.125000	0.511022
	C3292	C	0.630633	0.214208	0.630221
	C3293	C	0.636390	0.124928	0.635418
	C3294	C	0.630618	0.035720	0.630256
	C3295	C	0.619370	0.036021	0.619980
	C3296	C	0.613657	0.125083	0.614692
	C3297	C	0.619382	0.214308	0.619933
	C3298	C	0.601608	0.124915	0.603506
	C3299	C	0.648436	0.124718	0.646632
	C3300	C	0.565092	0.124534	0.603461
	C3301	C	0.553044	0.124646	0.614668
	C3302	C	0.547323	0.214003	0.619960
	C3303	C	0.536107	0.213779	0.630220
	C3304	C	0.530297	0.124358	0.635352
	C3305	C	0.536052	0.035097	0.630091
	C3306	C	0.547274	0.035335	0.619862
	C3307	C	0.518251	0.124555	0.646544
	C3308	C	0.565088	0.374880	0.563286
	C3309	C	0.553023	0.374579	0.552135
	C3310	C	0.547286	0.463760	0.546844
	C3311	C	0.536090	0.463773	0.536554
	C3312	C	0.530295	0.374708	0.531371
	C3313	C	0.535961	0.285580	0.536783
	C3314	C	0.547184	0.285527	0.547032
	C3315	C	0.518236	0.375012	0.520155
	C3316	C	0.601526	0.375744	0.563198
	C3317	C	0.613617	0.375582	0.552076
	C3318	C	0.619326	0.286432	0.546760
	C3319	C	0.630546	0.286321	0.536483
	C3320	C	0.636298	0.375578	0.531249
	C3321	C	0.630620	0.464825	0.536606
	C3322	C	0.619416	0.464776	0.546904
	C3323	C	0.648379	0.375325	0.520139
	H3324	H	0.634870	0.216960	0.532481
	H3325	H	0.614961	0.217479	0.550741
	H3326	H	0.634929	0.283240	0.634220
	H3327	H	0.615110	0.283411	0.615888
	H3328	H	0.583283	0.125048	0.560412
	H3329	H	0.583467	0.374557	0.606307
	H3330	H	0.499952	0.374765	0.643671
	H3331	H	0.666686	0.125221	0.523008
	H3332	H	0.551522	0.216386	0.551064
	H3333	H	0.531591	0.216468	0.532801
	H3334	H	0.531753	0.282835	0.634265
	H3335	H	0.551650	0.283221	0.615878
	H3336	H	0.531813	0.533025	0.532485
	H3337	H	0.551697	0.532859	0.550764
	H3338	H	0.551554	-0.033532	0.615698
	H3339	H	0.531699	-0.034281	0.634018
	H3340	H	0.615029	-0.033156	0.616009
	H3341	H	0.634905	-0.033359	0.634278
	H3342	H	0.615143	0.534027	0.551032
	H3343	H	0.634991	0.533895	0.532658
	Al3344	Al	0.583345	-0.500115	0.750144
	Al3345	Al	0.583358	-0.250311	0.750135
	Al3346	Al	0.499956	-0.249980	0.666723
	Al3347	Al	0.499996	-0.500055	0.666687
	O3348	O	0.596810	-0.458888	0.766043
	O3349	O	0.583370	-0.375275	0.739177
	O3350	O	0.583345	-0.125204	0.761001
	O3351	O	0.653270	-0.458971	0.817404
	O3352	O	0.569931	-0.459017	0.766044
	O3353	O	0.513397	-0.459154	0.817478
	O3354	O	0.569826	-0.290797	0.765895
	O3355	O	0.569932	-0.209120	0.734172
	O3356	O	0.513448	-0.209531	0.682576
	O3357	O	0.596822	-0.290597	0.766082
	O3358	O	0.596803	-0.209007	0.734154
	O3359	O	0.653222	-0.209293	0.682672
	O3360	O	0.513528	-0.291107	0.817620
	O3361	O	0.569848	-0.040870	0.734213
	O3362	O	0.513402	-0.041555	0.682720
	O3363	O	0.653254	-0.040905	0.682728
	O3364	O	0.596882	-0.040953	0.734266
	O3365	O	0.653236	-0.290720	0.817335
	O3366	O	0.500094	-0.124852	0.822566
	O3367	O	0.666681	-0.374666	0.677669
	C3368	C	0.630643	-0.285853	0.796780
	C3369	C	0.636454	-0.374994	0.801933
	C3370	C	0.630636	-0.464248	0.796788
	C3371	C	0.619409	-0.464340	0.786585
	C3372	C	0.613653	-0.375049	0.781353
	C3373	C	0.619404	-0.285725	0.786584
	C3374	C	0.601602	-0.374729	0.770228
	C3375	C	0.648487	-0.374885	0.813124
	C3376	C	0.565106	-0.374988	0.770209
	C3377	C	0.553032	-0.375198	0.781355
	C3378	C	0.547237	-0.286101	0.786605
	C3379	C	0.536029	-0.286203	0.796865
	C3380	C	0.530290	-0.375427	0.802121
	C3381	C	0.536075	-0.464609	0.796859
	C3382	C	0.547298	-0.464422	0.786610
	C3383	C	0.518218	-0.375328	0.813269
	C3384	C	0.565099	-0.125064	0.729939
	C3385	C	0.553034	-0.125289	0.718802
	C3386	C	0.547218	-0.036252	0.713560
	C3387	C	0.535975	-0.036298	0.703304
	C3388	C	0.530230	-0.125587	0.698108
	C3389	C	0.536072	-0.214694	0.703279
	C3390	C	0.547305	-0.214490	0.713536
	C3391	C	0.518186	-0.125601	0.686931
	C3392	C	0.601605	-0.124991	0.729952
	C3393	C	0.613655	-0.125085	0.718732
	C3394	C	0.619388	-0.214091	0.713487
	C3395	C	0.630617	-0.214239	0.703222
	C3396	C	0.636424	-0.125335	0.698080
	C3397	C	0.630646	-0.036370	0.703260
	C3398	C	0.619428	-0.036089	0.713520
	C3399	C	0.648466	-0.125210	0.686943
	H3400	H	0.634921	-0.283318	0.699209
	H3401	H	0.615053	-0.283009	0.717486
	H3402	H	0.634980	-0.216952	0.800788
	H3403	H	0.615057	-0.216765	0.782544
	H3404	H	0.583508	-0.374992	0.727207
	H3405	H	0.583209	-0.125624	0.772991
	H3406	H	0.500252	-0.125416	0.810559
	H3407	H	0.666738	-0.374997	0.689709
	H3408	H	0.551696	-0.283440	0.717498
	H3409	H	0.531772	-0.284094	0.699183
	H3410	H	0.531653	-0.217068	0.800824
	H3411	H	0.551517	-0.217052	0.782535
	H3412	H	0.531589	0.032680	0.699297
	H3413	H	0.551545	0.033139	0.717559
	H3414	H	0.551616	-0.533446	0.782539
	H3415	H	0.531696	-0.533731	0.800849
	H3416	H	0.615036	-0.533095	0.782643
	H3417	H	0.634957	-0.533358	0.800882
	H3418	H	0.615089	0.033174	0.717556
	H3419	H	0.634989	0.032654	0.699266
	Al3420	Al	0.583372	-0.000249	0.750079
	Al3421	Al	0.583313	0.250085	0.750096
	Al3422	Al	0.500038	0.249991	0.666662
	Al3423	Al	0.500026	-0.000164	0.666721
	O3424	O	0.596854	0.041235	0.765919
	O3425	O	0.583329	0.124893	0.739157
	O3426	O	0.583325	0.374895	0.761063
	O3427	O	0.653194	0.040713	0.817504
	O3428	O	0.569912	0.040529	0.765960
	O3429	O	0.513511	0.040761	0.817595
	O3430	O	0.569878	0.208876	0.766008
	O3431	O	0.569845	0.291214	0.734227
	O3432	O	0.513526	0.291217	0.682529
	O3433	O	0.596892	0.209326	0.765949
	O3434	O	0.596771	0.291207	0.734177
	O3435	O	0.653185	0.291321	0.682639
	O3436	O	0.513497	0.208943	0.817581
	O3437	O	0.569748	0.459242	0.734461
	O3438	O	0.513517	0.459327	0.682476
	O3439	O	0.653197	0.459351	0.682634
	O3440	O	0.596821	0.459340	0.734272
	O3441	O	0.653217	0.208863	0.817417
	O3442	O	0.500076	0.374827	0.822542
	O3443	O	0.666631	0.124819	0.677775
	C3444	C	0.630705	0.213850	0.796758
	C3445	C	0.636355	0.124794	0.802087
	C3446	C	0.630556	0.035992	0.796938
	C3447	C	0.619351	0.036116	0.786637
	C3448	C	0.613672	0.125331	0.781393
	C3449	C	0.619508	0.214263	0.786471
	C3450	C	0.601610	0.125203	0.770163
	C3451	C	0.648407	0.124905	0.813271
	C3452	C	0.565136	0.124594	0.770260
	C3453	C	0.553070	0.124454	0.781390
	C3454	C	0.547258	0.213700	0.786519
	C3455	C	0.536041	0.213956	0.796780
	C3456	C	0.530319	0.124837	0.802151
	C3457	C	0.536130	0.035636	0.797011
	C3458	C	0.547349	0.035432	0.786748
	C3459	C	0.518261	0.125010	0.813333
	C3460	C	0.565036	0.375391	0.730074
	C3461	C	0.553004	0.375411	0.718905
	C3462	C	0.547299	0.464727	0.713552
	C3463	C	0.536120	0.464684	0.703217
	C3464	C	0.530321	0.375598	0.697987
	C3465	C	0.536044	0.286388	0.703321
	C3466	C	0.547233	0.286219	0.713620
	C3467	C	0.518264	0.375376	0.686839
	C3468	C	0.601577	0.375290	0.729970
	C3469	C	0.613641	0.375381	0.718851
	C3470	C	0.619367	0.286317	0.713530
	C3471	C	0.630595	0.286402	0.703282
	C3472	C	0.636396	0.375432	0.698111
	C3473	C	0.630604	0.464480	0.703283
	C3474	C	0.619397	0.464477	0.713567
	C3475	C	0.648441	0.375075	0.686925
	H3476	H	0.634884	0.217106	0.699185
	H3477	H	0.615004	0.217415	0.717501
	H3478	H	0.635052	0.282908	0.800724
	H3479	H	0.615281	0.283437	0.782355
	H3480	H	0.583320	0.124947	0.727175
	H3481	H	0.583380	0.374615	0.773034
	H3482	H	0.500179	0.374381	0.810563
	H3483	H	0.666575	0.124805	0.689806
	H3484	H	0.551481	0.217247	0.717769
	H3485	H	0.531707	0.217125	0.699304
	H3486	H	0.531647	0.283282	0.800733
	H3487	H	0.551590	0.282620	0.782430
	H3488	H	0.531826	0.533908	0.699177
	H3489	H	0.551633	0.533691	0.717597
	H3490	H	0.551732	-0.033727	0.782839
	H3491	H	0.531840	-0.033514	0.801151
	H3492	H	0.614930	-0.032907	0.782707
	H3493	H	0.634778	-0.033213	0.801052
	H3494	H	0.615050	0.533373	0.717563
	H3495	H	0.634899	0.533651	0.699213
	Al3496	Al	0.583384	-0.499924	0.916638
	Al3497	Al	0.583447	-0.249878	0.916685
	Al3498	Al	0.500040	-0.249902	0.833501
	Al3499	Al	0.500025	-0.500156	0.833526
	O3500	O	0.596831	-0.459088	0.932579
	O3501	O	0.583375	-0.374951	0.905741
	O3502	O	0.583403	-0.124921	0.927542
	O3503	O	0.653211	-0.458604	0.984140
	O3504	O	0.569881	-0.459325	0.932503
	O3505	O	0.513546	-0.458928	0.984145
	O3506	O	0.569869	-0.290967	0.932506
	O3507	O	0.569962	-0.209213	0.900703
	O3508	O	0.513510	-0.208870	0.849461
	O3509	O	0.596827	-0.290925	0.932640
	O3510	O	0.596924	-0.208959	0.900744
	O3511	O	0.653265	-0.209031	0.849110
	O3512	O	0.513530	-0.290888	0.984079
	O3513	O	0.569957	-0.041071	0.900730
	O3514	O	0.513490	-0.040870	0.849409
	O3515	O	0.653307	-0.040973	0.849299
	O3516	O	0.596882	-0.041043	0.900692
	O3517	O	0.653226	-0.290569	0.984133
	O3518	O	0.500047	-0.124975	0.988972
	O3519	O	0.666781	-0.375076	0.844187
	C3520	C	0.630727	-0.285903	0.963301
	C3521	C	0.636464	-0.374821	0.968592
	C3522	C	0.630649	-0.463824	0.963453
	C3523	C	0.619430	-0.463882	0.953175
	C3524	C	0.613729	-0.374935	0.947823
	C3525	C	0.619502	-0.285858	0.953004
	C3526	C	0.601638	-0.374871	0.936779
	C3527	C	0.648497	-0.374545	0.979785
	C3528	C	0.565085	-0.375138	0.936708
	C3529	C	0.553023	-0.375290	0.947840
	C3530	C	0.547318	-0.286338	0.953129
	C3531	C	0.536135	-0.286320	0.963449
	C3532	C	0.530359	-0.375283	0.968656
	C3533	C	0.536102	-0.464316	0.963411
	C3534	C	0.547295	-0.464509	0.953101
	C3535	C	0.518289	-0.374854	0.979810
	C3536	C	0.565178	-0.125008	0.896486
	C3537	C	0.553127	-0.124950	0.885336
	C3538	C	0.547351	-0.035787	0.880205
	C3539	C	0.536113	-0.035671	0.869979
	C3540	C	0.530335	-0.124629	0.864757
	C3541	C	0.536123	-0.213678	0.869881
	C3542	C	0.547343	-0.213810	0.880115
	C3543	C	0.518298	-0.124863	0.853621
	C3544	C	0.601668	-0.125157	0.896459
	C3545	C	0.613697	-0.125174	0.885277
	C3546	C	0.619373	-0.214193	0.879923
	C3547	C	0.630605	-0.214031	0.869699
	C3548	C	0.636453	-0.125126	0.864647
	C3549	C	0.630705	-0.036055	0.869871
	C3550	C	0.619482	-0.036235	0.880091
	C3551	C	0.648551	-0.125104	0.853493
	H3552	H	0.634909	-0.282711	0.865569
	H3553	H	0.614926	-0.283331	0.883775
	H3554	H	0.635095	-0.217092	0.967224
	H3555	H	0.615221	-0.216867	0.948943
	H3556	H	0.583407	-0.374103	0.893747
	H3557	H	0.583645	-0.124963	0.939515
	H3558	H	0.500032	-0.125106	0.977015
	H3559	H	0.666748	-0.374880	0.856179
	H3560	H	0.551669	-0.283124	0.884084
	H3561	H	0.531793	-0.283029	0.865865
	H3562	H	0.531829	-0.217369	0.967508
	H3563	H	0.551668	-0.217436	0.949149
	H3564	H	0.531782	0.033423	0.865979
	H3565	H	0.551708	0.033178	0.884239
	H3566	H	0.551638	-0.533677	0.949047
	H3567	H	0.531773	-0.533529	0.967445
	H3568	H	0.615069	-0.532810	0.949233
	H3569	H	0.634934	-0.532785	0.967519
	H3570	H	0.615168	0.032962	0.884143
	H3571	H	0.635090	0.032862	0.865977
	Al3572	Al	0.583412	-0.000036	0.916607
	Al3573	Al	0.583429	0.250094	0.916730
	Al3574	Al	0.500037	0.249970	0.833499
	Al3575	Al	0.500002	0.000151	0.833469
	O3576	O	0.596909	0.041089	0.932545
	O3577	O	0.583389	0.125028	0.905685
	O3578	O	0.583457	0.375070	0.927658
	O3579	O	0.653215	0.041115	0.984166
	O3580	O	0.569945	0.040697	0.932493
	O3581	O	0.513538	0.041095	0.984057
	O3582	O	0.569981	0.209116	0.932590
	O3583	O	0.569917	0.290551	0.900862
	O3584	O	0.513462	0.291186	0.849438
	O3585	O	0.596975	0.209078	0.932437
	O3586	O	0.596848	0.291279	0.900690
	O3587	O	0.653272	0.291269	0.849159
	O3588	O	0.513593	0.209457	0.984139
	O3589	O	0.569943	0.458687	0.900744
	O3590	O	0.513585	0.459222	0.849310
	O3591	O	0.653335	0.459438	0.849194
	O3592	O	0.596932	0.459400	0.900852
	O3593	O	0.653219	0.209358	0.984137
	O3594	O	0.500074	0.375139	0.989069
	O3595	O	0.666721	0.125049	0.844259
	C3596	C	0.630721	0.214495	0.963423
	C3597	C	0.636419	0.125425	0.968758
	C3598	C	0.630714	0.036174	0.963470
	C3599	C	0.619508	0.035912	0.953193
	C3600	C	0.613754	0.124880	0.947951
	C3601	C	0.619520	0.214020	0.953137
	C3602	C	0.601691	0.125050	0.936807
	C3603	C	0.648445	0.125302	0.979934
	C3604	C	0.565199	0.124806	0.936767
	C3605	C	0.553092	0.125135	0.947870
	C3606	C	0.547315	0.214251	0.952993
	C3607	C	0.536091	0.214415	0.963270
	C3608	C	0.530346	0.125298	0.968547
	C3609	C	0.536119	0.036290	0.963369
	C3610	C	0.547326	0.036114	0.953092
	C3611	C	0.518315	0.125397	0.979847
	C3612	C	0.565172	0.374696	0.896581
	C3613	C	0.553119	0.374740	0.885407
	C3614	C	0.547377	0.463699	0.880210
	C3615	C	0.536141	0.463614	0.869968
	C3616	C	0.530351	0.374783	0.864771
	C3617	C	0.536097	0.285776	0.869998
	C3618	C	0.547335	0.285891	0.880237
	C3619	C	0.518291	0.375101	0.853635
	C3620	C	0.601623	0.375310	0.896472
	C3621	C	0.613692	0.375442	0.885273
	C3622	C	0.619375	0.286560	0.879872
	C3623	C	0.630627	0.286624	0.869640
	C3624	C	0.636428	0.375611	0.864503
	C3625	C	0.630777	0.464571	0.869928
	C3626	C	0.619532	0.464533	0.880203
	C3627	C	0.648526	0.375535	0.853401
	H3628	H	0.634887	0.217639	0.865547
	H3629	H	0.615005	0.217579	0.883779
	H3630	H	0.635018	0.283794	0.967449
	H3631	H	0.615191	0.283019	0.949159
	H3632	H	0.583217	0.125618	0.893721
	H3633	H	0.583522	0.375484	0.939607
	H3634	H	0.500131	0.375150	0.977152
	H3635	H	0.666553	0.125798	0.856294
	H3636	H	0.551620	0.216988	0.884318
	H3637	H	0.531762	0.217165	0.866016
	H3638	H	0.531794	0.283551	0.967269
	H3639	H	0.551657	0.283052	0.948955
	H3640	H	0.531832	0.532569	0.865990
	H3641	H	0.551716	0.532351	0.884240
	H3642	H	0.551660	-0.033125	0.949157
	H3643	H	0.531831	-0.032483	0.967493
	H3644	H	0.615191	-0.032876	0.949204
	H3645	H	0.635025	-0.032616	0.967560
	H3646	H	0.615287	0.533662	0.884377
	H3647	H	0.635202	0.533386	0.866102
	Al3648	Al	0.749972	-0.499991	0.083538
	Al3649	Al	0.750003	-0.250098	0.083619
	Al3650	Al	0.666748	-0.250112	0.000002
	Al3651	Al	0.666723	-0.499766	-0.000057
	O3652	O	0.763491	-0.459132	0.099432
	O3653	O	0.749982	-0.375052	0.072634
	O3654	O	0.750005	-0.125003	0.094495
	O3655	O	0.819819	-0.459172	0.150871
	O3656	O	0.736515	-0.459076	0.099437
	O3657	O	0.680090	-0.459268	0.150901
	O3658	O	0.736521	-0.290990	0.099425
	O3659	O	0.736463	-0.209453	0.067759
	O3660	O	0.680151	-0.209437	0.015996
	O3661	O	0.763502	-0.290944	0.099487
	O3662	O	0.763439	-0.209142	0.067677
	O3663	O	0.819883	-0.209212	0.016083
	O3664	O	0.680045	-0.291031	0.150988
	O3665	O	0.736515	-0.041432	0.067634
	O3666	O	0.680183	-0.041267	0.015980
	O3667	O	0.819816	-0.041193	0.015995
	O3668	O	0.763452	-0.041257	0.067656
	O3669	O	0.819833	-0.291031	0.150925
	O3670	O	0.666591	-0.125102	0.155934
	O3671	O	0.833321	-0.375019	0.011032
	C3672	C	0.797286	-0.285728	0.130263
	C3673	C	0.803045	-0.374715	0.135478
	C3674	C	0.797239	-0.463625	0.130353
	C3675	C	0.786050	-0.463798	0.120088
	C3676	C	0.780344	-0.374891	0.114785
	C3677	C	0.786107	-0.285907	0.120021
	C3678	C	0.768279	-0.375125	0.103642
	C3679	C	0.815067	-0.374889	0.146667
	C3680	C	0.731759	-0.374970	0.103697
	C3681	C	0.719677	-0.374971	0.114811
	C3682	C	0.713886	-0.286000	0.120013
	C3683	C	0.702662	-0.285957	0.130268
	C3684	C	0.696902	-0.374862	0.135498
	C3685	C	0.702684	-0.463937	0.130319
	C3686	C	0.713917	-0.463934	0.120052
	C3687	C	0.684846	-0.375085	0.146685
	C3688	C	0.731764	-0.125572	0.063420
	C3689	C	0.719776	-0.125493	0.052127
	C3690	C	0.714007	-0.036478	0.046919
	C3691	C	0.702785	-0.036390	0.036640
	C3692	C	0.697045	-0.125437	0.031348
	C3693	C	0.702811	-0.214380	0.036587
	C3694	C	0.714013	-0.214587	0.046884
	C3695	C	0.684974	-0.125278	0.020200
	C3696	C	0.768209	-0.125186	0.063387
	C3697	C	0.780273	-0.125194	0.052182
	C3698	C	0.786042	-0.214151	0.046975
	C3699	C	0.797250	-0.214155	0.036693
	C3700	C	0.803003	-0.125268	0.031439
	C3701	C	0.797250	-0.036316	0.036654
	C3702	C	0.786041	-0.036093	0.046924
	C3703	C	0.815081	-0.125254	0.020299
	H3704	H	0.801645	-0.283057	0.032779
	H3705	H	0.781708	-0.282942	0.050982
	H3706	H	0.801622	-0.217017	0.134330
	H3707	H	0.781751	-0.217113	0.115973
	H3708	H	0.749834	-0.374939	0.060625
	H3709	H	0.750024	-0.125078	0.106473
	H3710	H	0.666400	-0.125142	0.143960
	H3711	H	0.833004	-0.374843	0.023021
	H3712	H	0.718339	-0.283547	0.050941
	H3713	H	0.698465	-0.283473	0.032544
	H3714	H	0.698339	-0.216975	0.134299
	H3715	H	0.718198	-0.216887	0.116014
	H3716	H	0.698452	0.032393	0.032660
	H3717	H	0.718293	0.032420	0.051046
	H3718	H	0.718265	-0.532900	0.116079
	H3719	H	0.698379	-0.532858	0.134401
	H3720	H	0.781663	-0.532545	0.116147
	H3721	H	0.801557	-0.532483	0.134470
	H3722	H	0.781655	0.032729	0.050890
	H3723	H	0.801592	0.032714	0.032616
	Al3724	Al	0.749955	-0.000113	0.083536
	Al3725	Al	0.749989	0.249929	0.083608
	Al3726	Al	0.666729	0.250090	-0.000006
	Al3727	Al	0.666702	0.000059	0.000044
	O3728	O	0.763447	0.040976	0.099433
	O3729	O	0.750015	0.124938	0.072610
	O3730	O	0.749971	0.374990	0.094523
	O3731	O	0.819821	0.040751	0.150916
	O3732	O	0.736504	0.040927	0.099395
	O3733	O	0.680147	0.040744	0.151069
	O3734	O	0.736478	0.208901	0.099481
	O3735	O	0.736544	0.290859	0.067625
	O3736	O	0.680148	0.291163	0.015975
	O3737	O	0.763432	0.209395	0.099528
	O3738	O	0.763522	0.291060	0.067820
	O3739	O	0.819765	0.291198	0.015955
	O3740	O	0.680085	0.208839	0.150934
	O3741	O	0.736458	0.458994	0.067718
	O3742	O	0.680168	0.459473	0.015964
	O3743	O	0.819885	0.459054	0.016019
	O3744	O	0.763436	0.459191	0.067660
	O3745	O	0.819913	0.209107	0.150849
	O3746	O	0.666613	0.374829	0.155838
	O3747	O	0.833330	0.125147	0.011081
	C3748	C	0.797309	0.214190	0.130264
	C3749	C	0.803031	0.125071	0.135516
	C3750	C	0.797230	0.035940	0.130395
	C3751	C	0.785990	0.035865	0.120148
	C3752	C	0.780292	0.125018	0.114845
	C3753	C	0.786075	0.214094	0.120031
	C3754	C	0.768235	0.125073	0.103696
	C3755	C	0.815132	0.124893	0.146667
	C3756	C	0.731726	0.124840	0.103664
	C3757	C	0.719646	0.124701	0.114842
	C3758	C	0.713907	0.213698	0.120080
	C3759	C	0.702677	0.213612	0.130312
	C3760	C	0.696904	0.124639	0.135498
	C3761	C	0.702649	0.035641	0.130273
	C3762	C	0.713865	0.035684	0.120038
	C3763	C	0.684882	0.124647	0.146727
	C3764	C	0.731758	0.374830	0.063419
	C3765	C	0.719737	0.374991	0.052122
	C3766	C	0.714004	0.464247	0.046914
	C3767	C	0.702771	0.464093	0.036616
	C3768	C	0.697011	0.375116	0.031382
	C3769	C	0.702783	0.286081	0.036560
	C3770	C	0.714013	0.286021	0.046856
	C3771	C	0.684931	0.375224	0.020200
	C3772	C	0.768221	0.375154	0.063424
	C3773	C	0.780279	0.375202	0.052234
	C3774	C	0.786040	0.286297	0.046987
	C3775	C	0.797266	0.286402	0.036699
	C3776	C	0.803009	0.375381	0.031454
	C3777	C	0.797231	0.464261	0.036689
	C3778	C	0.786021	0.464131	0.046976
	C3779	C	0.815061	0.375112	0.020252
	H3780	H	0.801624	0.217135	0.032677
	H3781	H	0.781687	0.217110	0.050992
	H3782	H	0.801672	0.283121	0.134273
	H3783	H	0.781818	0.283322	0.115958
	H3784	H	0.750178	0.124754	0.060657
	H3785	H	0.749948	0.374681	0.106509
	H3786	H	0.666789	0.375232	0.143858
	H3787	H	0.833286	0.125397	0.023017
	H3788	H	0.718360	0.217053	0.050841
	H3789	H	0.698476	0.216945	0.032507
	H3790	H	0.698367	0.282826	0.134346
	H3791	H	0.718269	0.282861	0.116018
	H3792	H	0.698446	0.533084	0.032618
	H3793	H	0.718308	0.533109	0.050979
	H3794	H	0.718187	-0.033260	0.116018
	H3795	H	0.698352	-0.033588	0.134294
	H3796	H	0.781622	-0.033371	0.116152
	H3797	H	0.801490	-0.033115	0.134555
	H3798	H	0.781664	0.532978	0.050916
	H3799	H	0.801516	0.533415	0.032675
	Al3800	Al	0.749914	-0.500217	0.250127
	Al3801	Al	0.749944	-0.249978	0.250108
	Al3802	Al	0.666637	-0.249970	0.166815
	Al3803	Al	0.666624	-0.499871	0.166749
	O3804	O	0.763435	-0.459038	0.265924
	O3805	O	0.749894	-0.375105	0.239130
	O3806	O	0.749913	-0.125158	0.261083
	O3807	O	0.819774	-0.459283	0.317555
	O3808	O	0.736509	-0.459171	0.266005
	O3809	O	0.680061	-0.459227	0.317463
	O3810	O	0.736465	-0.290965	0.266032
	O3811	O	0.736415	-0.209536	0.234195
	O3812	O	0.680068	-0.209771	0.182705
	O3813	O	0.763488	-0.290963	0.265888
	O3814	O	0.763375	-0.209098	0.234188
	O3815	O	0.819696	-0.209837	0.182652
	O3816	O	0.680118	-0.290933	0.317546
	O3817	O	0.736483	-0.041315	0.234195
	O3818	O	0.680053	-0.041597	0.182738
	O3819	O	0.819833	-0.041198	0.182748
	O3820	O	0.763473	-0.040894	0.234424
	O3821	O	0.819828	-0.291187	0.317478
	O3822	O	0.666549	-0.125061	0.322460
	O3823	O	0.833391	-0.374890	0.177786
	C3824	C	0.797266	-0.286231	0.296892
	C3825	C	0.803007	-0.375327	0.302106
	C3826	C	0.797285	-0.464201	0.296793
	C3827	C	0.786068	-0.464286	0.286516
	C3828	C	0.780282	-0.375268	0.281378
	C3829	C	0.786064	-0.286391	0.286603
	C3830	C	0.768224	-0.374931	0.270210
	C3831	C	0.815006	-0.374990	0.313358
	C3832	C	0.731728	-0.375102	0.270272
	C3833	C	0.719623	-0.375199	0.281349
	C3834	C	0.713841	-0.286134	0.286547
	C3835	C	0.702625	-0.286196	0.296769
	C3836	C	0.696923	-0.375281	0.302108
	C3837	C	0.702661	-0.464382	0.296839
	C3838	C	0.713898	-0.464366	0.286597
	C3839	C	0.684850	-0.375025	0.313230
	C3840	C	0.731703	-0.125349	0.229882
	C3841	C	0.719646	-0.125108	0.218735
	C3842	C	0.713873	-0.036074	0.213495
	C3843	C	0.702630	-0.036082	0.203256
	C3844	C	0.696889	-0.125310	0.198060
	C3845	C	0.702639	-0.214217	0.203346
	C3846	C	0.713894	-0.214227	0.213546
	C3847	C	0.684821	-0.125564	0.186955
	C3848	C	0.768200	-0.125033	0.230112
	C3849	C	0.780255	-0.124756	0.218867
	C3850	C	0.785955	-0.214027	0.213492
	C3851	C	0.797160	-0.214348	0.203181
	C3852	C	0.802986	-0.125131	0.198152
	C3853	C	0.797322	-0.035887	0.203515
	C3854	C	0.786114	-0.035676	0.213848
	C3855	C	0.815012	-0.125490	0.186948
	H3856	H	0.801376	-0.283377	0.198992
	H3857	H	0.781605	-0.282826	0.217463
	H3858	H	0.801549	-0.217188	0.300969
	H3859	H	0.781738	-0.217264	0.282652
	H3860	H	0.749912	-0.375132	0.227234
	H3861	H	0.750056	-0.125216	0.273073
	H3862	H	0.666470	-0.125470	0.310463
	H3863	H	0.833590	-0.375020	0.189734
	H3864	H	0.718244	-0.283159	0.217523
	H3865	H	0.698262	-0.283373	0.199436
	H3866	H	0.698235	-0.216914	0.300673
	H3867	H	0.718165	-0.216974	0.282487
	H3868	H	0.698267	0.032905	0.199252
	H3869	H	0.718172	0.032879	0.217456
	H3870	H	0.718267	-0.533394	0.282600
	H3871	H	0.698343	-0.533512	0.300894
	H3872	H	0.781708	-0.533387	0.282509
	H3873	H	0.801578	-0.533105	0.300844
	H3874	H	0.781899	0.033181	0.218104
	H3875	H	0.801699	0.032980	0.199589
	Al3876	Al	0.749913	-0.000043	0.250152
	Al3877	Al	0.749936	0.249930	0.250077
	Al3878	Al	0.666566	0.249863	0.166824
	Al3879	Al	0.666621	-0.000002	0.166834
	O3880	O	0.763355	0.040809	0.266068
	O3881	O	0.749906	0.124925	0.239203
	O3882	O	0.749937	0.374720	0.261007
	O3883	O	0.819871	0.040866	0.317436
	O3884	O	0.736477	0.040774	0.266097
	O3885	O	0.680070	0.040729	0.317524
	O3886	O	0.736506	0.208870	0.266036
	O3887	O	0.736473	0.290786	0.234193
	O3888	O	0.680093	0.290459	0.182648
	O3889	O	0.763416	0.209031	0.266050
	O3890	O	0.763389	0.290836	0.234264
	O3891	O	0.819841	0.290513	0.182753
	O3892	O	0.680066	0.209024	0.317560
	O3893	O	0.736422	0.459299	0.234214
	O3894	O	0.680074	0.458780	0.182581
	O3895	O	0.819860	0.459081	0.182776
	O3896	O	0.763470	0.459108	0.234307
	O3897	O	0.819792	0.208845	0.317513
	O3898	O	0.666616	0.375214	0.322436
	O3899	O	0.833303	0.124926	0.177714
	C3900	C	0.797265	0.213450	0.296818
	C3901	C	0.803029	0.124462	0.302004
	C3902	C	0.797236	0.035502	0.296807
	C3903	C	0.786012	0.035488	0.286572
	C3904	C	0.780256	0.124448	0.281333
	C3905	C	0.786048	0.213395	0.286562
	C3906	C	0.768174	0.124913	0.270270
	C3907	C	0.815063	0.124794	0.313229
	C3908	C	0.731736	0.124950	0.270267
	C3909	C	0.719648	0.124853	0.281396
	C3910	C	0.713902	0.213921	0.286638
	C3911	C	0.702665	0.213859	0.296911
	C3912	C	0.696889	0.124829	0.302097
	C3913	C	0.702641	0.035643	0.296864
	C3914	C	0.713893	0.035623	0.286636
	C3915	C	0.684800	0.124788	0.313202
	C3916	C	0.731683	0.374995	0.229978
	C3917	C	0.719576	0.375165	0.218866
	C3918	C	0.713822	0.464459	0.213638
	C3919	C	0.702609	0.464381	0.203357
	C3920	C	0.696875	0.374947	0.198084
	C3921	C	0.702660	0.285659	0.203242
	C3922	C	0.713877	0.285821	0.213526
	C3923	C	0.684841	0.374556	0.186867
	C3924	C	0.768211	0.374851	0.230068
	C3925	C	0.780263	0.374784	0.218841
	C3926	C	0.785949	0.285580	0.213450
	C3927	C	0.797188	0.285488	0.203206
	C3928	C	0.803059	0.374797	0.198197
	C3929	C	0.797321	0.464077	0.203484
	C3930	C	0.786111	0.464023	0.213753
	C3931	C	0.815091	0.374685	0.186982
	H3932	H	0.801425	0.216363	0.198984
	H3933	H	0.781551	0.216689	0.217347
	H3934	H	0.801589	0.282525	0.300871
	H3935	H	0.781696	0.282538	0.282541
	H3936	H	0.749914	0.124817	0.227332
	H3937	H	0.749933	0.374715	0.272982
	H3938	H	0.666766	0.374995	0.310412
	H3939	H	0.833185	0.124651	0.189686
	H3940	H	0.718280	0.216671	0.217412
	H3941	H	0.698365	0.216437	0.199150
	H3942	H	0.698275	0.283118	0.300840
	H3943	H	0.718203	0.283037	0.282647
	H3944	H	0.698289	0.533467	0.199320
	H3945	H	0.718172	0.533571	0.217610
	H3946	H	0.718200	-0.033732	0.282646
	H3947	H	0.698286	-0.033586	0.300798
	H3948	H	0.781626	-0.033615	0.282633
	H3949	H	0.801512	-0.033719	0.300897
	H3950	H	0.781842	0.533248	0.217910
	H3951	H	0.801695	0.533187	0.199504
	Al3952	Al	0.749925	-0.500278	0.416663
	Al3953	Al	0.749975	-0.250081	0.416628
	Al3954	Al	0.666553	-0.249854	0.333411
	Al3955	Al	0.666560	-0.499939	0.333336
	O3956	O	0.763466	-0.459191	0.432551
	O3957	O	0.749950	-0.375295	0.405759
	O3958	O	0.749903	-0.125132	0.427568
	O3959	O	0.819805	-0.459582	0.484181
	O3960	O	0.736515	-0.459399	0.432605
	O3961	O	0.680088	-0.459270	0.484060
	O3962	O	0.736550	-0.290923	0.432633
	O3963	O	0.736447	-0.209442	0.400805
	O3964	O	0.680014	-0.209266	0.349357
	O3965	O	0.763484	-0.290988	0.432514
	O3966	O	0.763340	-0.209350	0.400606
	O3967	O	0.819832	-0.209066	0.349335
	O3968	O	0.680101	-0.291103	0.484054
	O3969	O	0.736459	-0.041191	0.400736
	O3970	O	0.680036	-0.041170	0.349292
	O3971	O	0.819816	-0.040777	0.349199
	O3972	O	0.763382	-0.041099	0.400707
	O3973	O	0.819849	-0.291430	0.484142
	O3974	O	0.666642	-0.125018	0.489183
	O3975	O	0.833197	-0.374895	0.344348
	C3976	C	0.797268	-0.286263	0.463467
	C3977	C	0.802983	-0.375345	0.468742
	C3978	C	0.797216	-0.464169	0.463505
	C3979	C	0.786013	-0.464206	0.453214
	C3980	C	0.780281	-0.375204	0.447975
	C3981	C	0.786046	-0.286250	0.453213
	C3982	C	0.768229	-0.375076	0.436805
	C3983	C	0.815083	-0.375466	0.479863
	C3984	C	0.731825	-0.375094	0.436910
	C3985	C	0.719727	-0.374986	0.448035
	C3986	C	0.713908	-0.285947	0.453138
	C3987	C	0.702643	-0.286024	0.463370
	C3988	C	0.696956	-0.375205	0.468698
	C3989	C	0.702697	-0.464312	0.463446
	C3990	C	0.713955	-0.464260	0.453203
	C3991	C	0.684859	-0.375200	0.479890
	C3992	C	0.731707	-0.125548	0.396477
	C3993	C	0.719674	-0.125367	0.385318
	C3994	C	0.713961	-0.036341	0.380017
	C3995	C	0.702713	-0.036381	0.369803
	C3996	C	0.696906	-0.125343	0.364645
	C3997	C	0.702612	-0.214600	0.369958
	C3998	C	0.713882	-0.214612	0.380155
	C3999	C	0.684803	-0.125217	0.353575
	C4000	C	0.768148	-0.125073	0.396418
	C4001	C	0.780243	-0.124963	0.385343
	C4002	C	0.785965	-0.214045	0.380030
	C4003	C	0.797223	-0.214002	0.369845
	C4004	C	0.803032	-0.124884	0.364727
	C4005	C	0.797304	-0.035890	0.370068
	C4006	C	0.786050	-0.035715	0.380256
	C4007	C	0.815091	-0.124853	0.353570
	H4008	H	0.801521	-0.283039	0.365731
	H4009	H	0.781595	-0.283051	0.383995
	H4010	H	0.801646	-0.217461	0.467434
	H4011	H	0.781714	-0.216934	0.449160
	H4012	H	0.750095	-0.375458	0.393770
	H4013	H	0.749765	-0.125372	0.439559
	H4014	H	0.666834	-0.124148	0.477212
	H4015	H	0.833151	-0.374769	0.356365
	H4016	H	0.718143	-0.283840	0.384285
	H4017	H	0.698222	-0.283690	0.366035
	H4018	H	0.698279	-0.216890	0.467323
	H4019	H	0.718244	-0.216971	0.449141
	H4020	H	0.698408	0.032746	0.365722
	H4021	H	0.718297	0.033135	0.384016
	H4022	H	0.718310	-0.533169	0.449242
	H4023	H	0.698381	-0.533385	0.467463
	H4024	H	0.781686	-0.533173	0.449184
	H4025	H	0.801539	-0.533104	0.467515
	H4026	H	0.781752	0.033079	0.384361
	H4027	H	0.801742	0.033112	0.366183
	Al4028	Al	0.749898	-0.000154	0.416677
	Al4029	Al	0.749885	0.249929	0.416647
	Al4030	Al	0.666566	0.250290	0.333403
	Al4031	Al	0.666566	-0.000027	0.333379
	O4032	O	0.763354	0.040924	0.432604
	O4033	O	0.749841	0.124671	0.405681
	O4034	O	0.750005	0.374910	0.427633
	O4035	O	0.819807	0.040848	0.484081
	O4036	O	0.736447	0.040827	0.432609
	O4037	O	0.680109	0.040606	0.484217
	O4038	O	0.736444	0.208937	0.432541
	O4039	O	0.736414	0.290874	0.400798
	O4040	O	0.680051	0.291114	0.349205
	O4041	O	0.763345	0.209192	0.432574
	O4042	O	0.763369	0.290743	0.400751
	O4043	O	0.819802	0.290487	0.349205
	O4044	O	0.680007	0.208652	0.484094
	O4045	O	0.736423	0.459042	0.400781
	O4046	O	0.680047	0.459168	0.349247
	O4047	O	0.819796	0.458748	0.349394
	O4048	O	0.763370	0.458740	0.400757
	O4049	O	0.819835	0.209021	0.484177
	O4050	O	0.666637	0.374911	0.489115
	O4051	O	0.833348	0.124856	0.344250
	C4052	C	0.797261	0.214126	0.463344
	C4053	C	0.803014	0.125036	0.468612
	C4054	C	0.797215	0.035946	0.463364
	C4055	C	0.785981	0.035790	0.453157
	C4056	C	0.780223	0.125059	0.447954
	C4057	C	0.786035	0.214143	0.453142
	C4058	C	0.768153	0.124893	0.436800
	C4059	C	0.815075	0.125066	0.479794
	C4060	C	0.731682	0.125202	0.436858
	C4061	C	0.719659	0.125162	0.448029
	C4062	C	0.713831	0.214250	0.453151
	C4063	C	0.702599	0.214074	0.463408
	C4064	C	0.696902	0.124965	0.468730
	C4065	C	0.702722	0.036002	0.463597
	C4066	C	0.713954	0.036070	0.453360
	C4067	C	0.684812	0.124799	0.479873
	C4068	C	0.731690	0.375011	0.396473
	C4069	C	0.719643	0.374731	0.385316
	C4070	C	0.713886	0.463791	0.380087
	C4071	C	0.702663	0.463990	0.369870
	C4072	C	0.696896	0.375055	0.364594
	C4073	C	0.702638	0.286047	0.369881
	C4074	C	0.713845	0.285824	0.380102
	C4075	C	0.684822	0.375246	0.353489
	C4076	C	0.768121	0.374834	0.396470
	C4077	C	0.780215	0.374619	0.385381
	C4078	C	0.785926	0.285462	0.380110
	C4079	C	0.797184	0.285368	0.369906
	C4080	C	0.802973	0.374385	0.364719
	C4081	C	0.797296	0.463594	0.370055
	C4082	C	0.786044	0.463658	0.380266
	C4083	C	0.815024	0.374377	0.353558
	H4084	H	0.801502	0.216441	0.365843
	H4085	H	0.781543	0.216503	0.384024
	H4086	H	0.801665	0.283152	0.467276
	H4087	H	0.781712	0.283131	0.449072
	H4088	H	0.749886	0.124219	0.393716
	H4089	H	0.750306	0.374407	0.439638
	H4090	H	0.666655	0.375347	0.477079
	H4091	H	0.833430	0.125123	0.356165
	H4092	H	0.718178	0.216774	0.384167
	H4093	H	0.698258	0.217206	0.365895
	H4094	H	0.698212	0.283222	0.467338
	H4095	H	0.718110	0.283464	0.449052
	H4096	H	0.698298	0.532924	0.365897
	H4097	H	0.718243	0.532668	0.384191
	H4098	H	0.718301	-0.033272	0.449412
	H4099	H	0.698439	-0.033043	0.467686
	H4100	H	0.781645	-0.033088	0.449095
	H4101	H	0.801604	-0.032811	0.467342
	H4102	H	0.781771	0.532537	0.384383
	H4103	H	0.801653	0.532604	0.366121
	Al4104	Al	0.749981	-0.500033	0.583443
	Al4105	Al	0.749960	-0.250206	0.583382
	Al4106	Al	0.666647	-0.250076	0.500009
	Al4107	Al	0.666631	-0.499810	0.500022
	O4108	O	0.763472	-0.459228	0.599228
	O4109	O	0.749932	-0.375199	0.572454
	O4110	O	0.749989	-0.125162	0.594368
	O4111	O	0.819844	-0.459510	0.650744
	O4112	O	0.736520	-0.459479	0.599429
	O4113	O	0.680109	-0.459702	0.650829
	O4114	O	0.736537	-0.291310	0.599330
	O4115	O	0.736518	-0.209376	0.567489
	O4116	O	0.680133	-0.209469	0.515821
	O4117	O	0.763493	-0.291042	0.599197
	O4118	O	0.763348	-0.209297	0.567396
	O4119	O	0.819847	-0.209600	0.516030
	O4120	O	0.680166	-0.291561	0.650868
	O4121	O	0.736471	-0.040914	0.567522
	O4122	O	0.680077	-0.041114	0.516033
	O4123	O	0.819796	-0.041486	0.515983
	O4124	O	0.763393	-0.041044	0.567462
	O4125	O	0.819860	-0.291233	0.650732
	O4126	O	0.666727	-0.125103	0.655834
	O4127	O	0.833309	-0.374977	0.510967
	C4128	C	0.797319	-0.286015	0.630093
	C4129	C	0.803068	-0.375375	0.635332
	C4130	C	0.797284	-0.464450	0.630109
	C4131	C	0.786072	-0.464190	0.619854
	C4132	C	0.780315	-0.375032	0.614635
	C4133	C	0.786106	-0.285751	0.619851
	C4134	C	0.768256	-0.375225	0.603479
	C4135	C	0.815110	-0.375246	0.646507
	C4136	C	0.731763	-0.375258	0.603638
	C4137	C	0.719676	-0.375537	0.614774
	C4138	C	0.713920	-0.286493	0.619980
	C4139	C	0.702700	-0.286359	0.630225
	C4140	C	0.696950	-0.375479	0.635405
	C4141	C	0.702660	-0.464529	0.630127
	C4142	C	0.713878	-0.464672	0.619905
	C4143	C	0.684907	-0.375464	0.646626
	C4144	C	0.731770	-0.125268	0.563228
	C4145	C	0.719684	-0.125477	0.552019
	C4146	C	0.713938	-0.036260	0.546823
	C4147	C	0.702703	-0.036133	0.536585
	C4148	C	0.696946	-0.125400	0.531311
	C4149	C	0.702692	-0.214611	0.536553
	C4150	C	0.713918	-0.214549	0.546806
	C4151	C	0.684842	-0.125341	0.520199
	C4152	C	0.768140	-0.125121	0.563174
	C4153	C	0.780211	-0.125270	0.552047
	C4154	C	0.785937	-0.214467	0.546767
	C4155	C	0.797177	-0.214532	0.536538
	C4156	C	0.802997	-0.125447	0.531422
	C4157	C	0.797246	-0.036062	0.536601
	C4158	C	0.785997	-0.036113	0.546845
	C4159	C	0.815047	-0.125368	0.520231
	H4160	H	0.801483	-0.283695	0.532436
	H4161	H	0.781525	-0.283639	0.550660
	H4162	H	0.801665	-0.216783	0.634153
	H4163	H	0.781773	-0.216627	0.615862
	H4164	H	0.749888	-0.374835	0.560508
	H4165	H	0.750192	-0.125696	0.606214
	H4166	H	0.666695	-0.124747	0.643893
	H4167	H	0.833313	-0.375385	0.522912
	H4168	H	0.718203	-0.283355	0.550830
	H4169	H	0.698324	-0.283578	0.532585
	H4170	H	0.698366	-0.217336	0.634292
	H4171	H	0.718274	-0.217530	0.615930
	H4172	H	0.698310	0.033081	0.532631
	H4173	H	0.718277	0.032871	0.550916
	H4174	H	0.718178	-0.533654	0.615861
	H4175	H	0.698341	-0.533385	0.634168
	H4176	H	0.781702	-0.533383	0.615848
	H4177	H	0.801579	-0.533694	0.634157
	H4178	H	0.781667	0.032996	0.550825
	H4179	H	0.801582	0.033066	0.532522
	Al4180	Al	0.749958	-0.000003	0.583449
	Al4181	Al	0.749992	0.250016	0.583347
	Al4182	Al	0.666553	0.249978	0.500079
	Al4183	Al	0.666592	-0.000021	0.500152
	O4184	O	0.763496	0.040478	0.599312
	O4185	O	0.750003	0.125052	0.572516
	O4186	O	0.750019	0.374653	0.594362
	O4187	O	0.819906	0.040982	0.650688
	O4188	O	0.736526	0.041088	0.599354
	O4189	O	0.680157	0.040965	0.650918
	O4190	O	0.736490	0.209244	0.599292
	O4191	O	0.736553	0.291199	0.567415
	O4192	O	0.680080	0.290685	0.515956
	O4193	O	0.763483	0.209038	0.599281
	O4194	O	0.763415	0.290744	0.567395
	O4195	O	0.819823	0.290931	0.515952
	O4196	O	0.680203	0.209218	0.650917
	O4197	O	0.736479	0.459192	0.567591
	O4198	O	0.680054	0.458775	0.515965
	O4199	O	0.819878	0.459028	0.516015
	O4200	O	0.763477	0.458922	0.567478
	O4201	O	0.819826	0.209158	0.650748
	O4202	O	0.666668	0.374640	0.655832
	O4203	O	0.833329	0.124839	0.510999
	C4204	C	0.797275	0.214021	0.630078
	C4205	C	0.803061	0.124950	0.635270
	C4206	C	0.797325	0.035681	0.630051
	C4207	C	0.786101	0.035481	0.619804
	C4208	C	0.780322	0.124647	0.614604
	C4209	C	0.786060	0.213877	0.619827
	C4210	C	0.768259	0.124809	0.603460
	C4211	C	0.815119	0.124940	0.646446
	C4212	C	0.731741	0.125179	0.603562
	C4213	C	0.719658	0.125212	0.614686
	C4214	C	0.713973	0.214233	0.620060
	C4215	C	0.702767	0.214275	0.630346
	C4216	C	0.696952	0.125131	0.635438
	C4217	C	0.702659	0.035929	0.630113
	C4218	C	0.713872	0.036058	0.619813
	C4219	C	0.684924	0.124922	0.646671
	C4220	C	0.731745	0.375098	0.563213
	C4221	C	0.719676	0.375108	0.552051
	C4222	C	0.713865	0.464018	0.546914
	C4223	C	0.702634	0.463778	0.536648
	C4224	C	0.696920	0.374683	0.531352
	C4225	C	0.702750	0.285726	0.536478
	C4226	C	0.713979	0.286104	0.546716
	C4227	C	0.684817	0.374630	0.520276
	C4228	C	0.768190	0.374818	0.563141
	C4229	C	0.780266	0.374608	0.552036
	C4230	C	0.786066	0.285558	0.546838
	C4231	C	0.797316	0.285759	0.536632
	C4232	C	0.803050	0.374996	0.531380
	C4233	C	0.797278	0.463930	0.536648
	C4234	C	0.786036	0.463793	0.546868
	C4235	C	0.815082	0.374868	0.520180
	H4236	H	0.801673	0.216636	0.532556
	H4237	H	0.781697	0.216131	0.550769
	H4238	H	0.801632	0.283071	0.634075
	H4239	H	0.781694	0.282667	0.615848
	H4240	H	0.750065	0.125312	0.560492
	H4241	H	0.749972	0.374108	0.606381
	H4242	H	0.666624	0.374655	0.643854
	H4243	H	0.833467	0.124743	0.522940
	H4244	H	0.718335	0.217329	0.550649
	H4245	H	0.698440	0.216712	0.532459
	H4246	H	0.698536	0.283169	0.634545
	H4247	H	0.718357	0.283511	0.616211
	H4248	H	0.698228	0.532680	0.532778
	H4249	H	0.718129	0.532996	0.551023
	H4250	H	0.718165	-0.032935	0.615727
	H4251	H	0.698330	-0.033146	0.634106
	H4252	H	0.781753	-0.033309	0.615795
	H4253	H	0.801700	-0.033537	0.634016
	H4254	H	0.781673	0.532993	0.550814
	H4255	H	0.801596	0.533314	0.532576
	Al4256	Al	0.750087	-0.500217	0.749824
	Al4257	Al	0.750025	-0.250348	0.749944
	Al4258	Al	0.666694	-0.250053	0.666719
	Al4259	Al	0.666678	-0.500031	0.666733
	O4260	O	0.763598	-0.459436	0.765797
	O4261	O	0.750040	-0.375135	0.738937
	O4262	O	0.750106	-0.125163	0.760913
	O4263	O	0.819802	-0.459333	0.817436
	O4264	O	0.736561	-0.459304	0.765693
	O4265	O	0.680198	-0.459306	0.817317
	O4266	O	0.736589	-0.291136	0.765872
	O4267	O	0.736554	-0.209215	0.734123
	O4268	O	0.680208	-0.209325	0.682571
	O4269	O	0.763526	-0.291378	0.765764
	O4270	O	0.763483	-0.209051	0.733965
	O4271	O	0.819930	-0.209034	0.682476
	O4272	O	0.680234	-0.291093	0.817404
	O4273	O	0.736575	-0.040989	0.734045
	O4274	O	0.680212	-0.041149	0.682621
	O4275	O	0.819898	-0.040901	0.682372
	O4276	O	0.763511	-0.041187	0.733956
	O4277	O	0.819844	-0.291177	0.817435
	O4278	O	0.666764	-0.125234	0.822303
	O4279	O	0.833458	-0.374906	0.677525
	C4280	C	0.797270	-0.285638	0.796810
	C4281	C	0.803057	-0.374789	0.801976
	C4282	C	0.797338	-0.463954	0.796698
	C4283	C	0.786143	-0.464038	0.786415
	C4284	C	0.780390	-0.375093	0.781151
	C4285	C	0.786087	-0.285777	0.786511
	C4286	C	0.768313	-0.375265	0.770039
	C4287	C	0.815090	-0.375130	0.813117
	C4288	C	0.731809	-0.375297	0.770022
	C4289	C	0.719770	-0.375154	0.781204
	C4290	C	0.714047	-0.286091	0.786533
	C4291	C	0.702841	-0.286105	0.796793
	C4292	C	0.697027	-0.375196	0.801944
	C4293	C	0.702806	-0.464104	0.796716
	C4294	C	0.713993	-0.464120	0.786450
	C4295	C	0.684982	-0.375078	0.813122
	C4296	C	0.731809	-0.125176	0.729843
	C4297	C	0.719737	-0.125047	0.718684
	C4298	C	0.713985	-0.035952	0.713448
	C4299	C	0.702767	-0.036204	0.703221
	C4300	C	0.697021	-0.125368	0.698014
	C4301	C	0.702778	-0.214414	0.703214
	C4302	C	0.713986	-0.214242	0.713469
	C4303	C	0.684985	-0.125408	0.686838
	C4304	C	0.768280	-0.125232	0.729703
	C4305	C	0.780340	-0.125181	0.718581
	C4306	C	0.786111	-0.214000	0.713266
	C4307	C	0.797330	-0.214096	0.703048
	C4308	C	0.803096	-0.125060	0.697811
	C4309	C	0.797348	-0.036130	0.703137
	C4310	C	0.786131	-0.036233	0.713360
	C4311	C	0.815182	-0.124834	0.686741
	H4312	H	0.801703	-0.283190	0.699106
	H4313	H	0.781778	-0.283050	0.717376
	H4314	H	0.801565	-0.216737	0.800882
	H4315	H	0.781708	-0.216768	0.782541
	H4316	H	0.749862	-0.375196	0.726936
	H4317	H	0.750162	-0.125349	0.772853
	H4318	H	0.666881	-0.124444	0.810332
	H4319	H	0.833584	-0.374642	0.689459
	H4320	H	0.718342	-0.283183	0.717447
	H4321	H	0.698486	-0.283457	0.699117
	H4322	H	0.698565	-0.217166	0.800919
	H4323	H	0.718454	-0.217193	0.782576
	H4324	H	0.698402	0.032877	0.699217
	H4325	H	0.718334	0.033068	0.717450
	H4326	H	0.718310	-0.533118	0.782440
	H4327	H	0.698468	-0.533030	0.800831
	H4328	H	0.781792	-0.532994	0.782373
	H4329	H	0.801697	-0.532767	0.800687
	H4330	H	0.781827	0.032851	0.717442
	H4331	H	0.801779	0.032538	0.699171
	Al4332	Al	0.750066	-0.000040	0.749923
	Al4333	Al	0.750047	0.250062	0.749896
	Al4334	Al	0.666691	0.249520	0.666752
	Al4335	Al	0.666700	-0.000240	0.666842
	O4336	O	0.763513	0.041127	0.765789
	O4337	O	0.750122	0.125169	0.738987
	O4338	O	0.750116	0.375243	0.760856
	O4339	O	0.819861	0.041158	0.817399
	O4340	O	0.736547	0.041216	0.765788
	O4341	O	0.680217	0.041084	0.817365
	O4342	O	0.736557	0.209410	0.765728
	O4343	O	0.736594	0.291297	0.734031
	O4344	O	0.680152	0.291069	0.682547
	O4345	O	0.763501	0.209149	0.765872
	O4346	O	0.763592	0.291014	0.734034
	O4347	O	0.819855	0.290999	0.682452
	O4348	O	0.680204	0.209139	0.817405
	O4349	O	0.736563	0.459337	0.734022
	O4350	O	0.680155	0.459263	0.682663
	O4351	O	0.819943	0.459178	0.682510
	O4352	O	0.763525	0.459171	0.733922
	O4353	O	0.819879	0.209417	0.817430
	O4354	O	0.666770	0.374742	0.822302
	O4355	O	0.833381	0.125012	0.677483
	C4356	C	0.797305	0.213933	0.796704
	C4357	C	0.803040	0.125085	0.801980
	C4358	C	0.797326	0.035939	0.796673
	C4359	C	0.786126	0.036009	0.786385
	C4360	C	0.780349	0.124968	0.781229
	C4361	C	0.786107	0.213945	0.786459
	C4362	C	0.768257	0.125019	0.770107
	C4363	C	0.815117	0.125173	0.813168
	C4364	C	0.731772	0.125513	0.770018
	C4365	C	0.719765	0.125466	0.781257
	C4366	C	0.714064	0.214700	0.786596
	C4367	C	0.702847	0.214665	0.796880
	C4368	C	0.697041	0.125432	0.801996
	C4369	C	0.702733	0.036175	0.796642
	C4370	C	0.713934	0.036204	0.786340
	C4371	C	0.684998	0.125272	0.813154
	C4372	C	0.731784	0.375246	0.729800
	C4373	C	0.719723	0.374895	0.718725
	C4374	C	0.713956	0.463825	0.713508
	C4375	C	0.702731	0.463987	0.703263
	C4376	C	0.696961	0.375063	0.698029
	C4377	C	0.702773	0.286373	0.703194
	C4378	C	0.714010	0.286118	0.713415
	C4379	C	0.684921	0.375048	0.686897
	C4380	C	0.768278	0.375096	0.729701
	C4381	C	0.780400	0.375097	0.718585
	C4382	C	0.786105	0.286062	0.713325
	C4383	C	0.797346	0.286183	0.703094
	C4384	C	0.803078	0.375181	0.697913
	C4385	C	0.797352	0.464184	0.703147
	C4386	C	0.786108	0.464157	0.713357
	C4387	C	0.815156	0.375019	0.686761
	H4388	H	0.801627	0.217250	0.698966
	H4389	H	0.781758	0.217415	0.717247
	H4390	H	0.801664	0.282897	0.800691
	H4391	H	0.781784	0.282909	0.782428
	H4392	H	0.750161	0.124530	0.727061
	H4393	H	0.750180	0.374588	0.772810
	H4394	H	0.666907	0.375688	0.810399
	H4395	H	0.833312	0.125214	0.689475
	H4396	H	0.718362	0.217479	0.717365
	H4397	H	0.698463	0.217381	0.699071
	H4398	H	0.698539	0.283863	0.800997
	H4399	H	0.718397	0.283922	0.782628
	H4400	H	0.698429	0.533124	0.699223
	H4401	H	0.718286	0.532676	0.717558
	H4402	H	0.718180	-0.032869	0.782130
	H4403	H	0.698335	-0.032894	0.800516
	H4404	H	0.781792	-0.032872	0.782389
	H4405	H	0.801669	-0.032651	0.800675
	H4406	H	0.781767	0.532916	0.717383
	H4407	H	0.801644	0.533208	0.699090
	Al4408	Al	0.750087	-0.499938	0.916687
	Al4409	Al	0.750101	-0.249740	0.916644
	Al4410	Al	0.666758	-0.250076	0.833242
	Al4411	Al	0.666758	-0.500102	0.833251
	O4412	O	0.763548	-0.459181	0.932641
	O4413	O	0.750046	-0.374900	0.905738
	O4414	O	0.750072	-0.125051	0.927652
	O4415	O	0.819971	-0.459256	0.984146
	O4416	O	0.736661	-0.459024	0.932585
	O4417	O	0.680162	-0.459195	0.983982
	O4418	O	0.736580	-0.290991	0.932533
	O4419	O	0.736653	-0.209229	0.900687
	O4420	O	0.680227	-0.209165	0.849135
	O4421	O	0.763547	-0.291063	0.932592
	O4422	O	0.763556	-0.209108	0.900791
	O4423	O	0.819826	-0.209529	0.849057
	O4424	O	0.680222	-0.290944	0.984093
	O4425	O	0.736639	-0.041276	0.900752
	O4426	O	0.680313	-0.041107	0.849065
	O4427	O	0.819886	-0.041394	0.849103
	O4428	O	0.763580	-0.040844	0.900760
	O4429	O	0.819881	-0.291061	0.984254
	O4430	O	0.666735	-0.124998	0.989071
	O4431	O	0.833389	-0.375207	0.844209
	C4432	C	0.797294	-0.286237	0.963711
	C4433	C	0.803099	-0.375170	0.968812
	C4434	C	0.797359	-0.464203	0.963547
	C4435	C	0.786147	-0.464151	0.953261
	C4436	C	0.780355	-0.375185	0.948112
	C4437	C	0.786083	-0.286242	0.953426
	C4438	C	0.768305	-0.374893	0.936904
	C4439	C	0.815145	-0.375303	0.979975
	C4440	C	0.731823	-0.375204	0.936811
	C4441	C	0.719797	-0.375097	0.948010
	C4442	C	0.713965	-0.286171	0.953029
	C4443	C	0.702725	-0.286045	0.963272
	C4444	C	0.697018	-0.374960	0.968630
	C4445	C	0.702810	-0.463957	0.963548
	C4446	C	0.714076	-0.463963	0.953332
	C4447	C	0.684950	-0.374942	0.979780
	C4448	C	0.731869	-0.125136	0.896467
	C4449	C	0.719774	-0.125155	0.885395
	C4450	C	0.714053	-0.036082	0.880034
	C4451	C	0.702858	-0.036235	0.869740
	C4452	C	0.697078	-0.125453	0.864603
	C4453	C	0.702786	-0.214617	0.869963
	C4454	C	0.713987	-0.214366	0.880243
	C4455	C	0.685019	-0.125401	0.853416
	C4456	C	0.768288	-0.125051	0.896454
	C4457	C	0.780369	-0.125263	0.885320
	C4458	C	0.786062	-0.214191	0.880029
	C4459	C	0.797271	-0.214170	0.869748
	C4460	C	0.803038	-0.125150	0.864539
	C4461	C	0.797323	-0.036088	0.869819
	C4462	C	0.786109	-0.036107	0.880114
	C4463	C	0.815109	-0.125384	0.853379
	H4464	H	0.801575	-0.283566	0.865697
	H4465	H	0.781689	-0.283123	0.883974
	H4466	H	0.801569	-0.217361	0.967819
	H4467	H	0.781713	-0.217090	0.949504
	H4468	H	0.750060	-0.374456	0.893784
	H4469	H	0.750036	-0.124590	0.939602
	H4470	H	0.666709	-0.125044	0.977138
	H4471	H	0.833528	-0.375168	0.856158
	H4472	H	0.718301	-0.283369	0.884286
	H4473	H	0.698426	-0.284009	0.866022
	H4474	H	0.698320	-0.216796	0.967140
	H4475	H	0.718241	-0.217210	0.948886
	H4476	H	0.698537	0.032941	0.865609
	H4477	H	0.718440	0.033040	0.883902
	H4478	H	0.718429	-0.533055	0.949381
	H4479	H	0.698482	-0.533022	0.967595
	H4480	H	0.781836	-0.533138	0.949209
	H4481	H	0.801691	-0.533063	0.967555
	H4482	H	0.781805	0.032795	0.884182
	H4483	H	0.801653	0.032627	0.865798
	Al4484	Al	0.750069	0.000139	0.916656
	Al4485	Al	0.750012	0.250171	0.916590
	Al4486	Al	0.666678	0.249841	0.833269
	Al4487	Al	0.666767	-0.000117	0.833297
	O4488	O	0.763514	0.041252	0.932578
	O4489	O	0.750082	0.125046	0.905682
	O4490	O	0.750072	0.374931	0.927553
	O4491	O	0.819881	0.040652	0.984177
	O4492	O	0.736596	0.040996	0.932545
	O4493	O	0.680162	0.040900	0.984117
	O4494	O	0.736504	0.209132	0.932487
	O4495	O	0.736572	0.291043	0.900685
	O4496	O	0.680222	0.290576	0.849128
	O4497	O	0.763503	0.209417	0.932572
	O4498	O	0.763467	0.290968	0.900674
	O4499	O	0.819890	0.290934	0.849208
	O4500	O	0.680174	0.208834	0.984114
	O4501	O	0.736604	0.459138	0.900685
	O4502	O	0.680309	0.458723	0.849016
	O4503	O	0.819811	0.459109	0.849124
	O4504	O	0.763588	0.459210	0.900811
	O4505	O	0.819878	0.209190	0.984166
	O4506	O	0.666804	0.374962	0.989027
	O4507	O	0.833348	0.124831	0.844192
	C4508	C	0.797271	0.213919	0.963614
	C4509	C	0.803055	0.124589	0.968799
	C4510	C	0.797336	0.035271	0.963472
	C4511	C	0.786107	0.035433	0.953183
	C4512	C	0.780314	0.124978	0.948055
	C4513	C	0.786051	0.214266	0.953339
	C4514	C	0.768283	0.125393	0.936839
	C4515	C	0.815119	0.124912	0.979902
	C4516	C	0.731793	0.125046	0.936759
	C4517	C	0.719729	0.124581	0.947926
	C4518	C	0.713943	0.213194	0.953096
	C4519	C	0.702717	0.213292	0.963366
	C4520	C	0.696986	0.124585	0.968648
	C4521	C	0.702808	0.035791	0.963525
	C4522	C	0.714048	0.035763	0.953264
	C4523	C	0.684936	0.124815	0.979840
	C4524	C	0.731826	0.375263	0.896424
	C4525	C	0.719715	0.375060	0.885320
	C4526	C	0.713990	0.464164	0.880005
	C4527	C	0.702801	0.463739	0.869731
	C4528	C	0.697036	0.374589	0.864526
	C4529	C	0.702757	0.285524	0.869881
	C4530	C	0.713954	0.285810	0.880164
	C4531	C	0.685019	0.374626	0.853329
	C4532	C	0.768289	0.374974	0.896487
	C4533	C	0.780325	0.374756	0.885303
	C4534	C	0.786070	0.285724	0.880045
	C4535	C	0.797271	0.285773	0.869790
	C4536	C	0.803048	0.374799	0.864565
	C4537	C	0.797292	0.463771	0.869824
	C4538	C	0.786086	0.463665	0.880077
	C4539	C	0.815116	0.374995	0.853448
	H4540	H	0.801644	0.216824	0.865777
	H4541	H	0.781747	0.216519	0.884082
	H4542	H	0.801613	0.283139	0.967676
	H4543	H	0.781735	0.283578	0.949351
	H4544	H	0.750096	0.125406	0.893676
	H4545	H	0.750197	0.374856	0.939549
	H4546	H	0.666865	0.374262	0.976885
	H4547	H	0.833269	0.124556	0.856226
	H4548	H	0.718298	0.216718	0.884177
	H4549	H	0.698424	0.216367	0.865896
	H4550	H	0.698365	0.282154	0.967338
	H4551	H	0.718248	0.282122	0.949039
	H4552	H	0.698543	0.532756	0.865611
	H4553	H	0.718354	0.533227	0.883918
	H4554	H	0.718414	-0.033138	0.949310
	H4555	H	0.698524	-0.033033	0.967615
	H4556	H	0.781839	-0.033569	0.948980
	H4557	H	0.801715	-0.034083	0.967381
	H4558	H	0.781738	0.532708	0.884149
	H4559	H	0.801628	0.532964	0.865863
	Al4560	Al	0.916638	-0.499900	0.083518
	Al4561	Al	0.916683	-0.250130	0.083426
	Al4562	Al	0.833373	-0.250025	0.000137
	Al4563	Al	0.833412	-0.500005	0.000155
	O4564	O	0.930164	-0.459467	0.099308
	O4565	O	0.916639	-0.374934	0.072553
	O4566	O	0.916673	-0.125360	0.094407
	O4567	O	0.986560	-0.459526	0.150856
	O4568	O	0.903216	-0.458737	0.099478
	O4569	O	0.846869	-0.459108	0.151090
	O4570	O	0.903168	-0.290507	0.099360
	O4571	O	0.903212	-0.209052	0.067567
	O4572	O	0.846862	-0.209096	0.016059
	O4573	O	0.930197	-0.291378	0.099318
	O4574	O	0.930103	-0.209294	0.067536
	O4575	O	0.986469	-0.209211	0.015966
	O4576	O	0.846762	-0.290896	0.150998
	O4577	O	0.903165	-0.040697	0.067633
	O4578	O	0.846810	-0.040909	0.016058
	O4579	O	0.986491	-0.041181	0.016066
	O4580	O	0.930167	-0.041215	0.067628
	O4581	O	0.986438	-0.291332	0.150940
	O4582	O	0.833269	-0.125103	0.155889
	O4583	O	0.999915	-0.375142	0.011075
	C4584	C	0.963868	-0.286874	0.130308
	C4585	C	0.969666	-0.375960	0.135529
	C4586	C	0.963921	-0.464909	0.130283
	C4587	C	0.952706	-0.464783	0.120021
	C4588	C	0.946945	-0.375706	0.114756
	C4589	C	0.952648	-0.286724	0.120050
	C4590	C	0.934962	-0.375308	0.103566
	C4591	C	0.981754	-0.375528	0.146644
	C4592	C	0.898411	-0.374663	0.103649
	C4593	C	0.886296	-0.374848	0.114769
	C4594	C	0.880499	-0.285544	0.119938
	C4595	C	0.869281	-0.285592	0.130197
	C4596	C	0.863562	-0.374829	0.135498
	C4597	C	0.869384	-0.464193	0.130377
	C4598	C	0.880579	-0.464192	0.120093
	C4599	C	0.851563	-0.374986	0.146781
	C4600	C	0.898419	-0.124821	0.063311
	C4601	C	0.886389	-0.124967	0.052168
	C4602	C	0.880617	-0.036034	0.046974
	C4603	C	0.869390	-0.036110	0.036725
	C4604	C	0.863652	-0.124997	0.031463
	C4605	C	0.869388	-0.214019	0.036720
	C4606	C	0.880622	-0.213918	0.046963
	C4607	C	0.851571	-0.124952	0.020350
	C4608	C	0.934875	-0.125413	0.063320
	C4609	C	0.946932	-0.125236	0.052180
	C4610	C	0.952628	-0.214482	0.046815
	C4611	C	0.963841	-0.214536	0.036570
	C4612	C	0.969654	-0.125351	0.031430
	C4613	C	0.963873	-0.036162	0.036643
	C4614	C	0.952679	-0.036077	0.046929
	C4615	C	0.981728	-0.125282	0.020265
	H4616	H	0.968149	-0.283662	0.032429
	H4617	H	0.948250	-0.283685	0.050748
	H4618	H	0.968233	-0.218146	0.134240
	H4619	H	0.948316	-0.218144	0.116049
	H4620	H	0.916778	-0.374972	0.060587
	H4621	H	0.916658	-0.125803	0.106344
	H4622	H	0.833422	-0.125387	0.143902
	H4623	H	0.999906	-0.375950	0.023056
	H4624	H	0.884902	-0.282687	0.051033
	H4625	H	0.865012	-0.283000	0.032788
	H4626	H	0.864931	-0.216418	0.134201
	H4627	H	0.884849	-0.216445	0.115855
	H4628	H	0.865038	0.032997	0.032712
	H4629	H	0.884923	0.033154	0.051071
	H4630	H	0.884962	-0.533317	0.116205
	H4631	H	0.865105	-0.533308	0.134586
	H4632	H	0.948419	-0.533815	0.115986
	H4633	H	0.968343	-0.533833	0.134209
	H4634	H	0.948322	0.033068	0.050921
	H4635	H	0.968211	0.032913	0.032580
	Al4636	Al	0.916707	-0.000039	0.083520
	Al4637	Al	0.916652	0.249806	0.083478
	Al4638	Al	0.833313	0.249968	0.000147
	Al4639	Al	0.833350	-0.000015	0.000128
	O4640	O	0.930179	0.041019	0.099411
	O4641	O	0.916652	0.124922	0.072580
	O4642	O	0.916615	0.374885	0.094395
	O4643	O	0.986525	0.041068	0.150937
	O4644	O	0.903263	0.040941	0.099423
	O4645	O	0.846828	0.040846	0.150989
	O4646	O	0.903198	0.208796	0.099350
	O4647	O	0.903156	0.290742	0.067546
	O4648	O	0.846879	0.290627	0.015954
	O4649	O	0.930218	0.209236	0.099226
	O4650	O	0.930087	0.290900	0.067509
	O4651	O	0.986477	0.290508	0.016073
	O4652	O	0.846838	0.209158	0.150914
	O4653	O	0.903119	0.459028	0.067636
	O4654	O	0.846829	0.459030	0.016032
	O4655	O	0.986463	0.458740	0.015986
	O4656	O	0.930127	0.459362	0.067661
	O4657	O	0.986493	0.209366	0.150993
	O4658	O	0.833287	0.375002	0.155860
	O4659	O	0.999883	0.124993	0.011048
	C4660	C	0.963926	0.214005	0.130321
	C4661	C	0.969679	0.125121	0.135559
	C4662	C	0.963942	0.036192	0.130286
	C4663	C	0.952746	0.036110	0.119998
	C4664	C	0.947000	0.125066	0.114759
	C4665	C	0.952721	0.214002	0.120042
	C4666	C	0.934974	0.125223	0.103569
	C4667	C	0.981753	0.125237	0.146704
	C4668	C	0.898445	0.124797	0.103589
	C4669	C	0.886330	0.124656	0.114748
	C4670	C	0.880545	0.213716	0.119907
	C4671	C	0.869321	0.213704	0.130181
	C4672	C	0.863587	0.124786	0.135445
	C4673	C	0.869387	0.035635	0.130326
	C4674	C	0.880632	0.035650	0.120048
	C4675	C	0.851575	0.124964	0.146679
	C4676	C	0.898407	0.374964	0.063372
	C4677	C	0.886334	0.375003	0.052139
	C4678	C	0.880614	0.463984	0.046848
	C4679	C	0.869400	0.464030	0.036595
	C4680	C	0.863658	0.374858	0.031391
	C4681	C	0.869381	0.285969	0.036654
	C4682	C	0.880570	0.285974	0.046940
	C4683	C	0.851575	0.374827	0.020263
	C4684	C	0.934847	0.375218	0.063308
	C4685	C	0.946920	0.375064	0.052154
	C4686	C	0.952675	0.285987	0.046970
	C4687	C	0.963898	0.285930	0.036742
	C4688	C	0.969629	0.374895	0.031428
	C4689	C	0.963872	0.464101	0.036620
	C4690	C	0.952651	0.464083	0.046866
	C4691	C	0.981701	0.374558	0.020249
	H4692	H	0.968259	0.216899	0.032737
	H4693	H	0.948325	0.216756	0.051004
	H4694	H	0.968280	0.283129	0.134325
	H4695	H	0.948400	0.283203	0.116062
	H4696	H	0.916547	0.125183	0.060634
	H4697	H	0.916533	0.375173	0.106335
	H4698	H	0.833370	0.374467	0.143865
	H4699	H	0.999641	0.124282	0.022902
	H4700	H	0.884863	0.217045	0.051089
	H4701	H	0.865040	0.217326	0.032683
	H4702	H	0.864994	0.282904	0.134163
	H4703	H	0.884871	0.282889	0.115879
	H4704	H	0.865047	0.532742	0.032573
	H4705	H	0.884974	0.533022	0.050897
	H4706	H	0.885031	-0.033338	0.116128
	H4707	H	0.865100	-0.033447	0.134424
	H4708	H	0.948397	-0.032794	0.115952
	H4709	H	0.968331	-0.032623	0.134251
	H4710	H	0.948290	0.532887	0.050821
	H4711	H	0.968225	0.532731	0.032528
	Al4712	Al	0.916665	-0.499988	0.250153
	Al4713	Al	0.916592	-0.250041	0.250101
	Al4714	Al	0.833292	-0.250044	0.166838
	Al4715	Al	0.833318	-0.499837	0.166844
	O4716	O	0.930172	-0.459233	0.265961
	O4717	O	0.916646	-0.375113	0.239202
	O4718	O	0.916622	-0.125215	0.261029
	O4719	O	0.986498	-0.459067	0.317534
	O4720	O	0.903189	-0.459533	0.266116
	O4721	O	0.846801	-0.459183	0.317536
	O4722	O	0.903127	-0.291274	0.265958
	O4723	O	0.903066	-0.209323	0.234210
	O4724	O	0.846748	-0.209118	0.182739
	O4725	O	0.930078	-0.290898	0.266056
	O4726	O	0.930085	-0.209526	0.234223
	O4727	O	0.986502	-0.209050	0.182632
	O4728	O	0.846804	-0.291072	0.317643
	O4729	O	0.903127	-0.041228	0.234280
	O4730	O	0.846744	-0.040973	0.182713
	O4731	O	0.986444	-0.041016	0.182649
	O4732	O	0.930082	-0.041169	0.234211
	O4733	O	0.986553	-0.290724	0.317406
	O4734	O	0.833287	-0.125196	0.322462
	O4735	O	1.000059	-0.374834	0.177712
	C4736	C	0.963901	-0.285882	0.296936
	C4737	C	0.969695	-0.375116	0.302100
	C4738	C	0.963900	-0.464224	0.296908
	C4739	C	0.952675	-0.464222	0.286655
	C4740	C	0.946954	-0.374845	0.281359
	C4741	C	0.952657	-0.285766	0.286685
	C4742	C	0.934867	-0.375168	0.270218
	C4743	C	0.981773	-0.374843	0.313212
	C4744	C	0.898375	-0.375400	0.270253
	C4745	C	0.886324	-0.375230	0.281413
	C4746	C	0.880568	-0.285885	0.286605
	C4747	C	0.869360	-0.285913	0.296880
	C4748	C	0.863597	-0.375037	0.302141
	C4749	C	0.869341	-0.464427	0.296921
	C4750	C	0.880577	-0.464392	0.286676
	C4751	C	0.851534	-0.375048	0.313306
	C4752	C	0.898332	-0.125072	0.230080
	C4753	C	0.886280	-0.124832	0.218858
	C4754	C	0.880583	-0.035891	0.213569
	C4755	C	0.869377	-0.036079	0.203299
	C4756	C	0.863582	-0.125001	0.198159
	C4757	C	0.869332	-0.214034	0.203336
	C4758	C	0.880528	-0.213822	0.213614
	C4759	C	0.851507	-0.124966	0.186953
	C4760	C	0.934868	-0.125382	0.229970
	C4761	C	0.946948	-0.125647	0.218863
	C4762	C	0.952759	-0.214761	0.213665
	C4763	C	0.963988	-0.214825	0.203432
	C4764	C	0.969703	-0.125800	0.198147
	C4765	C	0.963905	-0.036810	0.203312
	C4766	C	0.952690	-0.036838	0.213540
	C4767	C	0.981722	-0.125182	0.186924
	H4768	H	0.968346	-0.283743	0.199412
	H4769	H	0.948426	-0.283728	0.217741
	H4770	H	0.968246	-0.216780	0.300983
	H4771	H	0.948279	-0.216600	0.282757
	H4772	H	0.916737	-0.375548	0.227229
	H4773	H	0.916560	-0.124974	0.272973
	H4774	H	0.833109	-0.125032	0.310456
	H4775	H	1.000096	-0.374369	0.189786
	H4776	H	0.884854	-0.282739	0.217676
	H4777	H	0.865021	-0.283068	0.199294
	H4778	H	0.865006	-0.216571	0.300836
	H4779	H	0.884868	-0.216813	0.282494
	H4780	H	0.865070	0.033033	0.199175
	H4781	H	0.884961	0.033090	0.217516
	H4782	H	0.884907	-0.533553	0.282593
	H4783	H	0.864996	-0.533354	0.300915
	H4784	H	0.948264	-0.533101	0.282691
	H4785	H	0.968195	-0.533425	0.300982
	H4786	H	0.948318	0.032124	0.217457
	H4787	H	0.968159	0.031907	0.199182
	Al4788	Al	0.916641	0.000241	0.250154
	Al4789	Al	0.916681	0.249936	0.250004
	Al4790	Al	0.833365	0.250098	0.166820
	Al4791	Al	0.833268	-0.000132	0.166864
	O4792	O	0.930167	0.040668	0.265974
	O4793	O	0.916687	0.125069	0.239190
	O4794	O	0.916658	0.374794	0.261038
	O4795	O	0.986550	0.040780	0.317571
	O4796	O	0.903189	0.040886	0.265994
	O4797	O	0.846900	0.040922	0.317574
	O4798	O	0.903215	0.209069	0.265985
	O4799	O	0.903181	0.290705	0.234220
	O4800	O	0.846879	0.290692	0.182562
	O4801	O	0.930221	0.208816	0.265800
	O4802	O	0.930105	0.290950	0.234141
	O4803	O	0.986540	0.291223	0.182652
	O4804	O	0.846720	0.209098	0.317329
	O4805	O	0.903158	0.458826	0.234365
	O4806	O	0.846813	0.458735	0.182721
	O4807	O	0.986478	0.459330	0.182551
	O4808	O	0.930096	0.458830	0.234215
	O4809	O	0.986527	0.208837	0.317597
	O4810	O	0.833289	0.374834	0.322431
	O4811	O	1.000001	0.124900	0.177751
	C4812	C	0.963947	0.213846	0.296970
	C4813	C	0.969656	0.124752	0.302281
	C4814	C	0.963893	0.035707	0.297016
	C4815	C	0.952677	0.035800	0.286746
	C4816	C	0.946919	0.124888	0.281494
	C4817	C	0.952765	0.213862	0.286666
	C4818	C	0.934900	0.124882	0.270242
	C4819	C	0.981730	0.124737	0.313379
	C4820	C	0.898451	0.124916	0.270245
	C4821	C	0.886390	0.125267	0.281447
	C4822	C	0.880598	0.214331	0.286632
	C4823	C	0.869363	0.214347	0.296880
	C4824	C	0.863649	0.125247	0.302105
	C4825	C	0.869434	0.036023	0.296933
	C4826	C	0.880636	0.036027	0.286653
	C4827	C	0.851561	0.125044	0.313228
	C4828	C	0.898373	0.374895	0.230034
	C4829	C	0.886334	0.374670	0.218911
	C4830	C	0.880629	0.463790	0.213573
	C4831	C	0.869440	0.463770	0.203275
	C4832	C	0.863618	0.374595	0.198147
	C4833	C	0.869376	0.285515	0.203402
	C4834	C	0.880581	0.285561	0.213693
	C4835	C	0.851616	0.374770	0.186938
	C4836	C	0.934901	0.374814	0.229967
	C4837	C	0.946977	0.375172	0.218840
	C4838	C	0.952703	0.286450	0.213584
	C4839	C	0.963924	0.286429	0.203299
	C4840	C	0.969713	0.375146	0.198081
	C4841	C	0.963967	0.463935	0.203283
	C4842	C	0.952734	0.463892	0.213550
	C4843	C	0.981766	0.375206	0.186934
	H4844	H	0.968227	0.217387	0.199302
	H4845	H	0.948361	0.217575	0.217586
	H4846	H	0.968367	0.282953	0.300873
	H4847	H	0.948453	0.283000	0.282606
	H4848	H	0.916763	0.123832	0.227123
	H4849	H	0.916586	0.375176	0.273022
	H4850	H	0.833270	0.375355	0.310497
	H4851	H	1.000040	0.124994	0.189711
	H4852	H	0.884887	0.216586	0.217746
	H4853	H	0.865039	0.216539	0.199363
	H4854	H	0.865007	0.283331	0.300812
	H4855	H	0.884940	0.283326	0.282560
	H4856	H	0.865186	0.532874	0.199096
	H4857	H	0.885000	0.532882	0.217520
	H4858	H	0.884984	-0.033238	0.282657
	H4859	H	0.865125	-0.033306	0.300989
	H4860	H	0.948304	-0.033168	0.282738
	H4861	H	0.968239	-0.033319	0.301059
	H4862	H	0.948400	0.532667	0.217514
	H4863	H	0.968310	0.532732	0.199303
	Al4864	Al	0.916609	-0.500294	0.416696
	Al4865	Al	0.916695	-0.250217	0.416749
	Al4866	Al	0.833281	-0.250058	0.333439
	Al4867	Al	0.833202	-0.500128	0.333446
	O4868	O	0.930079	-0.459304	0.432578
	O4869	O	0.916628	-0.375048	0.405781
	O4870	O	0.916700	-0.125120	0.427683
	O4871	O	0.986657	-0.458917	0.483831
	O4872	O	0.903138	-0.459058	0.432629
	O4873	O	0.846797	-0.459167	0.484127
	O4874	O	0.903228	-0.290909	0.432707
	O4875	O	0.903190	-0.209155	0.400819
	O4876	O	0.846789	-0.209282	0.349333
	O4877	O	0.930165	-0.291126	0.432671
	O4878	O	0.930204	-0.209225	0.400896
	O4879	O	0.986569	-0.208995	0.349243
	O4880	O	0.846759	-0.291019	0.484153
	O4881	O	0.903205	-0.040906	0.400814
	O4882	O	0.846765	-0.041062	0.349345
	O4883	O	0.986612	-0.040838	0.349364
	O4884	O	0.930125	-0.040940	0.400729
	O4885	O	0.986523	-0.290901	0.484021
	O4886	O	0.833288	-0.125003	0.489146
	O4887	O	0.999960	-0.374909	0.344309
	C4888	C	0.963970	-0.286600	0.463392
	C4889	C	0.969740	-0.375522	0.468597
	C4890	C	0.964006	-0.464851	0.463270
	C4891	C	0.952743	-0.464893	0.453094
	C4892	C	0.946959	-0.375804	0.447951
	C4893	C	0.952726	-0.286638	0.453213
	C4894	C	0.934875	-0.375310	0.436902
	C4895	C	0.981846	-0.374983	0.479664
	C4896	C	0.898442	-0.374885	0.436972
	C4897	C	0.886370	-0.374657	0.448079
	C4898	C	0.880553	-0.285789	0.453172
	C4899	C	0.869309	-0.285679	0.463386
	C4900	C	0.863617	-0.374716	0.468749
	C4901	C	0.869414	-0.463597	0.463588
	C4902	C	0.880646	-0.463719	0.453392
	C4903	C	0.851527	-0.374952	0.479896
	C4904	C	0.898454	-0.124880	0.396535
	C4905	C	0.886384	-0.124838	0.385401
	C4906	C	0.880601	-0.035534	0.380224
	C4907	C	0.869370	-0.035792	0.370021
	C4908	C	0.863602	-0.125021	0.364759
	C4909	C	0.869381	-0.214062	0.369948
	C4910	C	0.880627	-0.213879	0.380154
	C4911	C	0.851543	-0.125050	0.353628
	C4912	C	0.934911	-0.125099	0.396529
	C4913	C	0.946969	-0.125081	0.385359
	C4914	C	0.952812	-0.214169	0.380251
	C4915	C	0.964024	-0.214104	0.370027
	C4916	C	0.969735	-0.124897	0.364660
	C4917	C	0.963935	-0.035806	0.369874
	C4918	C	0.952727	-0.035848	0.380094
	C4919	C	0.981819	-0.124962	0.353538
	H4920	H	0.968475	-0.282905	0.366068
	H4921	H	0.948494	-0.282953	0.384410
	H4922	H	0.968317	-0.217333	0.467349
	H4923	H	0.948342	-0.217647	0.449285
	H4924	H	0.916680	-0.375203	0.393796
	H4925	H	0.916699	-0.123946	0.439642
	H4926	H	0.833278	-0.125555	0.477130
	H4927	H	1.000307	-0.374971	0.356347
	H4928	H	0.884953	-0.282981	0.384150
	H4929	H	0.865031	-0.283029	0.365964
	H4930	H	0.864929	-0.216717	0.467325
	H4931	H	0.884891	-0.217172	0.449104
	H4932	H	0.865014	0.033438	0.366038
	H4933	H	0.884932	0.033646	0.384313
	H4934	H	0.885027	-0.532906	0.449422
	H4935	H	0.865129	-0.532726	0.467673
	H4936	H	0.948410	-0.534211	0.449077
	H4937	H	0.968398	-0.533808	0.467180
	H4938	H	0.948346	0.033187	0.384131
	H4939	H	0.968303	0.033150	0.365891
	Al4940	Al	0.916643	-0.000184	0.416695
	Al4941	Al	0.916643	0.250022	0.416787
	Al4942	Al	0.833274	0.249785	0.333317
	Al4943	Al	0.833370	-0.000309	0.333331
	O4944	O	0.930130	0.040591	0.432575
	O4945	O	0.916675	0.124928	0.405839
	O4946	O	0.916610	0.375089	0.427709
	O4947	O	0.986612	0.040962	0.483909
	O4948	O	0.903175	0.040881	0.432604
	O4949	O	0.846808	0.040674	0.484131
	O4950	O	0.903211	0.209065	0.432749
	O4951	O	0.903073	0.290460	0.400868
	O4952	O	0.846794	0.290974	0.349236
	O4953	O	0.930071	0.208855	0.432811
	O4954	O	0.930094	0.291174	0.400844
	O4955	O	0.986517	0.290659	0.349422
	O4956	O	0.846740	0.209112	0.484109
	O4957	O	0.903171	0.458797	0.400791
	O4958	O	0.846736	0.459140	0.349304
	O4959	O	0.986542	0.458944	0.349362
	O4960	O	0.930135	0.459222	0.400848
	O4961	O	0.986522	0.209109	0.483994
	O4962	O	0.833285	0.374893	0.489125
	O4963	O	1.000090	0.124962	0.344363
	C4964	C	0.963929	0.214022	0.463402
	C4965	C	0.969719	0.125125	0.468602
	C4966	C	0.963964	0.035986	0.463414
	C4967	C	0.952721	0.035651	0.453223
	C4968	C	0.946980	0.124533	0.447976
	C4969	C	0.952686	0.213791	0.453215
	C4970	C	0.934841	0.124743	0.436929
	C4971	C	0.981806	0.124997	0.479720
	C4972	C	0.898428	0.124796	0.436920
	C4973	C	0.886330	0.124583	0.448044
	C4974	C	0.880576	0.213916	0.453207
	C4975	C	0.869348	0.213889	0.463427
	C4976	C	0.863581	0.124890	0.468711
	C4977	C	0.869367	0.035653	0.463579
	C4978	C	0.880592	0.035462	0.453326
	C4979	C	0.851539	0.124881	0.479855
	C4980	C	0.898395	0.374730	0.396513
	C4981	C	0.886301	0.375202	0.385445
	C4982	C	0.880586	0.464425	0.380164
	C4983	C	0.869348	0.464690	0.369921
	C4984	C	0.863553	0.375451	0.364722
	C4985	C	0.869293	0.286370	0.369937
	C4986	C	0.880509	0.286219	0.380176
	C4987	C	0.851519	0.375129	0.353497
	C4988	C	0.934900	0.375307	0.396596
	C4989	C	0.946953	0.375061	0.385453
	C4990	C	0.952689	0.285978	0.380215
	C4991	C	0.963916	0.285841	0.369980
	C4992	C	0.969703	0.374917	0.364790
	C4993	C	0.963953	0.464154	0.369984
	C4994	C	0.952697	0.464263	0.380206
	C4995	C	0.981785	0.374993	0.353665
	H4996	H	0.968275	0.216499	0.366025
	H4997	H	0.948336	0.216761	0.384149
	H4998	H	0.968233	0.283085	0.467400
	H4999	H	0.948271	0.282777	0.449295
	H5000	H	0.916705	0.124502	0.393886
	H5001	H	0.916657	0.375396	0.439727
	H5002	H	0.833172	0.374954	0.477170
	H5003	H	1.000024	0.124785	0.356381
	H5004	H	0.884865	0.217374	0.384178
	H5005	H	0.865000	0.217428	0.365837
	H5006	H	0.865009	0.283108	0.467423
	H5007	H	0.884930	0.283109	0.449227
	H5008	H	0.865060	0.533057	0.365760
	H5009	H	0.884996	0.533261	0.384041
	H5010	H	0.884946	-0.033726	0.449370
	H5011	H	0.865049	-0.033589	0.467721
	H5012	H	0.948355	-0.033262	0.449324
	H5013	H	0.968343	-0.032980	0.467465
	H5014	H	0.948383	0.533564	0.384233
	H5015	H	0.968350	0.533267	0.365996
	Al5016	Al	0.916754	-0.500252	0.583178
	Al5017	Al	0.916673	-0.250248	0.583228
	Al5018	Al	0.833335	-0.249737	0.500076
	Al5019	Al	0.833320	-0.499964	0.500045
	O5020	O	0.930289	-0.459421	0.598992
	O5021	O	0.916777	-0.375139	0.572282
	O5022	O	0.916726	-0.125188	0.594139
	O5023	O	0.986496	-0.459224	0.650625
	O5024	O	0.903234	-0.459100	0.599114
	O5025	O	0.846870	-0.459208	0.650711
	O5026	O	0.903265	-0.291030	0.599115
	O5027	O	0.903208	-0.209327	0.567269
	O5028	O	0.846813	-0.209108	0.515920
	O5029	O	0.930202	-0.291392	0.599160
	O5030	O	0.930145	-0.209324	0.567266
	O5031	O	0.986615	-0.209336	0.515858
	O5032	O	0.846846	-0.291250	0.650669
	O5033	O	0.903268	-0.041397	0.567257
	O5034	O	0.846767	-0.041146	0.515960
	O5035	O	0.986525	-0.040939	0.515715
	O5036	O	0.930136	-0.041207	0.567221
	O5037	O	0.986577	-0.290977	0.650644
	O5038	O	0.833355	-0.124977	0.655604
	O5039	O	1.000037	-0.375022	0.510774
	C5040	C	0.964023	-0.285915	0.629932
	C5041	C	0.969744	-0.374955	0.635179
	C5042	C	0.964009	-0.464226	0.629978
	C5043	C	0.952784	-0.464137	0.619687
	C5044	C	0.947079	-0.375118	0.614433
	C5045	C	0.952791	-0.285877	0.619663
	C5046	C	0.934992	-0.375359	0.603306
	C5047	C	0.981781	-0.374995	0.646352
	C5048	C	0.898459	-0.375137	0.603356
	C5049	C	0.886380	-0.374689	0.614471
	C5050	C	0.880560	-0.285766	0.619645
	C5051	C	0.869347	-0.285855	0.629930
	C5052	C	0.863658	-0.375006	0.635244
	C5053	C	0.869478	-0.464014	0.630094
	C5054	C	0.880687	-0.463750	0.619815
	C5055	C	0.851611	-0.375086	0.646408
	C5056	C	0.898454	-0.125394	0.563017
	C5057	C	0.886379	-0.125002	0.551920
	C5058	C	0.880610	-0.035864	0.546784
	C5059	C	0.869346	-0.035889	0.536613
	C5060	C	0.863589	-0.124849	0.531377
	C5061	C	0.869383	-0.213896	0.536503
	C5062	C	0.880639	-0.213957	0.546689
	C5063	C	0.851576	-0.125026	0.520202
	C5064	C	0.934897	-0.125228	0.562984
	C5065	C	0.946990	-0.125452	0.551824
	C5066	C	0.952759	-0.214494	0.546647
	C5067	C	0.964015	-0.214469	0.536413
	C5068	C	0.969725	-0.125364	0.531150
	C5069	C	0.963976	-0.036355	0.536378
	C5070	C	0.952754	-0.036343	0.546618
	C5071	C	0.981818	-0.125071	0.520039
	H5072	H	0.968373	-0.283521	0.532475
	H5073	H	0.948449	-0.283229	0.550683
	H5074	H	0.968351	-0.216759	0.633971
	H5075	H	0.948458	-0.216874	0.615692
	H5076	H	0.916899	-0.374815	0.560329
	H5077	H	0.916674	-0.124756	0.606128
	H5078	H	0.833350	-0.124763	0.643641
	H5079	H	0.999779	-0.375114	0.522747
	H5080	H	0.885041	-0.283070	0.550648
	H5081	H	0.865097	-0.283099	0.532441
	H5082	H	0.865008	-0.216859	0.633949
	H5083	H	0.884863	-0.216862	0.615533
	H5084	H	0.865031	0.033143	0.532629
	H5085	H	0.884945	0.033243	0.550826
	H5086	H	0.885031	-0.532522	0.615910
	H5087	H	0.865223	-0.533061	0.634269
	H5088	H	0.948418	-0.533329	0.615708
	H5089	H	0.968313	-0.533339	0.633980
	H5090	H	0.948413	0.032733	0.550655
	H5091	H	0.968298	0.032973	0.532361
	Al5092	Al	0.916723	-0.000255	0.583242
	Al5093	Al	0.916724	0.249757	0.583249
	Al5094	Al	0.833324	0.250129	0.500050
	Al5095	Al	0.833262	-0.000076	0.500052
	O5096	O	0.930178	0.040932	0.599110
	O5097	O	0.916687	0.124776	0.572271
	O5098	O	0.916741	0.374947	0.594162
	O5099	O	0.986587	0.041320	0.650557
	O5100	O	0.903184	0.040876	0.599061
	O5101	O	0.846888	0.041245	0.650730
	O5102	O	0.903208	0.208745	0.599098
	O5103	O	0.903296	0.291053	0.567328
	O5104	O	0.846793	0.290714	0.515958
	O5105	O	0.930197	0.208820	0.599126
	O5106	O	0.930182	0.290528	0.567300
	O5107	O	0.986665	0.291264	0.515873
	O5108	O	0.846843	0.209268	0.650605
	O5109	O	0.903276	0.459127	0.567308
	O5110	O	0.846777	0.458967	0.515970
	O5111	O	0.986582	0.459347	0.515717
	O5112	O	0.930178	0.458678	0.567249
	O5113	O	0.986503	0.209407	0.650722
	O5114	O	0.833392	0.374910	0.655628
	O5115	O	0.999961	0.124994	0.510783
	C5116	C	0.963986	0.214253	0.629954
	C5117	C	0.969734	0.125186	0.635226
	C5118	C	0.964036	0.036090	0.629945
	C5119	C	0.952815	0.035934	0.619698
	C5120	C	0.947025	0.124924	0.614498
	C5121	C	0.952764	0.214074	0.619718
	C5122	C	0.934946	0.124867	0.603416
	C5123	C	0.981775	0.125322	0.646351
	C5124	C	0.898434	0.124725	0.603357
	C5125	C	0.886404	0.124827	0.614546
	C5126	C	0.880588	0.214016	0.619649
	C5127	C	0.869376	0.214050	0.629909
	C5128	C	0.863678	0.125240	0.635282
	C5129	C	0.869447	0.036040	0.630106
	C5130	C	0.880674	0.035967	0.619842
	C5131	C	0.851601	0.125122	0.646390
	C5132	C	0.898486	0.375000	0.563130
	C5133	C	0.886433	0.375062	0.551949
	C5134	C	0.880635	0.463885	0.546801
	C5135	C	0.869395	0.463721	0.536568
	C5136	C	0.863651	0.374753	0.531342
	C5137	C	0.869445	0.285873	0.536510
	C5138	C	0.880670	0.286003	0.546748
	C5139	C	0.851566	0.374854	0.520214
	C5140	C	0.934935	0.374539	0.563026
	C5141	C	0.947019	0.374898	0.551901
	C5142	C	0.952801	0.285862	0.546621
	C5143	C	0.964037	0.286147	0.536395
	C5144	C	0.969788	0.375237	0.531211
	C5145	C	0.963966	0.464242	0.536387
	C5146	C	0.952703	0.464076	0.546585
	C5147	C	0.981855	0.375420	0.520066
	H5148	H	0.968417	0.217017	0.532315
	H5149	H	0.948454	0.216687	0.550598
	H5150	H	0.968310	0.283539	0.633992
	H5151	H	0.948434	0.283102	0.615664
	H5152	H	0.916731	0.124840	0.560316
	H5153	H	0.916712	0.375478	0.606164
	H5154	H	0.833429	0.374950	0.643645
	H5155	H	0.999922	0.124794	0.522742
	H5156	H	0.884993	0.216840	0.550779
	H5157	H	0.865124	0.216982	0.532497
	H5158	H	0.864986	0.283189	0.633802
	H5159	H	0.884865	0.282823	0.615517
	H5160	H	0.864991	0.532884	0.532632
	H5161	H	0.884920	0.533257	0.550947
	H5162	H	0.885022	-0.033187	0.615830
	H5163	H	0.865099	-0.032892	0.634190
	H5164	H	0.948518	-0.033312	0.615662
	H5165	H	0.968404	-0.032911	0.633915
	H5166	H	0.948345	0.533164	0.550536
	H5167	H	0.968258	0.533340	0.532336
	Al5168	Al	0.916705	-0.500145	0.749861
	Al5169	Al	0.916684	-0.250306	0.749897
	Al5170	Al	0.833423	-0.250026	0.666570
	Al5171	Al	0.833347	-0.499912	0.666598
	O5172	O	0.930235	-0.459035	0.765705
	O5173	O	0.916659	-0.375039	0.738971
	O5174	O	0.916687	-0.125137	0.760816
	O5175	O	0.986420	-0.459086	0.817614
	O5176	O	0.903252	-0.459283	0.765826
	O5177	O	0.846857	-0.459695	0.817377
	O5178	O	0.903215	-0.291153	0.765772
	O5179	O	0.903210	-0.208711	0.733980
	O5180	O	0.846909	-0.209127	0.682408
	O5181	O	0.930183	-0.290889	0.765800
	O5182	O	0.930187	-0.209396	0.734014
	O5183	O	0.986546	-0.209128	0.682503
	O5184	O	0.846860	-0.291491	0.817375
	O5185	O	0.903203	-0.040536	0.733949
	O5186	O	0.846831	-0.041179	0.682433
	O5187	O	0.986470	-0.041017	0.682343
	O5188	O	0.930134	-0.041113	0.734003
	O5189	O	0.986475	-0.290868	0.817558
	O5190	O	0.833429	-0.125225	0.822250
	O5191	O	1.000073	-0.375234	0.677442
	C5192	C	0.963862	-0.286069	0.796934
	C5193	C	0.969658	-0.375106	0.802109
	C5194	C	0.963939	-0.464451	0.796794
	C5195	C	0.952766	-0.464233	0.786441
	C5196	C	0.946957	-0.375042	0.781308
	C5197	C	0.952684	-0.285893	0.786574
	C5198	C	0.934988	-0.374950	0.770019
	C5199	C	0.981652	-0.374887	0.813337
	C5200	C	0.898427	-0.375089	0.770018
	C5201	C	0.886379	-0.375214	0.781197
	C5202	C	0.880625	-0.286107	0.786453
	C5203	C	0.869416	-0.286220	0.796713
	C5204	C	0.863651	-0.375285	0.801912
	C5205	C	0.869438	-0.464332	0.796711
	C5206	C	0.880639	-0.464118	0.786442
	C5207	C	0.851614	-0.375422	0.813084
	C5208	C	0.898473	-0.124607	0.729671
	C5209	C	0.886376	-0.124809	0.718585
	C5210	C	0.880639	-0.035649	0.713299
	C5211	C	0.869401	-0.035705	0.703081
	C5212	C	0.863670	-0.124782	0.697851
	C5213	C	0.869457	-0.213842	0.703065
	C5214	C	0.880674	-0.213810	0.713287
	C5215	C	0.851601	-0.125166	0.686729
	C5216	C	0.934912	-0.125237	0.729743
	C5217	C	0.946962	-0.125256	0.718597
	C5218	C	0.952762	-0.214418	0.713482
	C5219	C	0.963998	-0.214164	0.703226
	C5220	C	0.969695	-0.125052	0.697872
	C5221	C	0.963897	-0.035798	0.703005
	C5222	C	0.952660	-0.036087	0.713248
	C5223	C	0.981762	-0.125173	0.686680
	H5224	H	0.968390	-0.283105	0.699272
	H5225	H	0.948484	-0.283632	0.717537
	H5226	H	0.968153	-0.216968	0.801031
	H5227	H	0.948369	-0.216880	0.782535
	H5228	H	0.916560	-0.375247	0.726938
	H5229	H	0.916562	-0.124703	0.772762
	H5230	H	0.833349	-0.124742	0.810349
	H5231	H	1.000192	-0.375608	0.689476
	H5232	H	0.885009	-0.283047	0.717224
	H5233	H	0.865104	-0.283265	0.699019
	H5234	H	0.865065	-0.217324	0.800745
	H5235	H	0.884952	-0.217259	0.782392
	H5236	H	0.865079	0.033290	0.699075
	H5237	H	0.885014	0.033462	0.717280
	H5238	H	0.884967	-0.533232	0.782369
	H5239	H	0.865113	-0.533413	0.800680
	H5240	H	0.948489	-0.533386	0.782283
	H5241	H	0.968277	-0.533668	0.800815
	H5242	H	0.948270	0.032926	0.717178
	H5243	H	0.968175	0.033311	0.698925
	Al5244	Al	0.916684	-0.000014	0.749872
	Al5245	Al	0.916724	0.249735	0.749915
	Al5246	Al	0.833352	0.249917	0.666579
	Al5247	Al	0.833378	-0.000025	0.666581
	O5248	O	0.930212	0.040309	0.765809
	O5249	O	0.916774	0.125097	0.738975
	O5250	O	0.916715	0.374936	0.760864
	O5251	O	0.986491	0.040415	0.817477
	O5252	O	0.903181	0.041202	0.765712
	O5253	O	0.846889	0.041065	0.817318
	O5254	O	0.903237	0.209222	0.765878
	O5255	O	0.903199	0.290746	0.734029
	O5256	O	0.846857	0.290846	0.682444
	O5257	O	0.930157	0.208485	0.765798
	O5258	O	0.930187	0.291061	0.734090
	O5259	O	0.986541	0.290970	0.682381
	O5260	O	0.846815	0.209159	0.817372
	O5261	O	0.903204	0.458966	0.734039
	O5262	O	0.846879	0.459300	0.682492
	O5263	O	0.986564	0.459021	0.682366
	O5264	O	0.930139	0.459098	0.733908
	O5265	O	0.986435	0.208511	0.817635
	O5266	O	0.833332	0.375040	0.822389
	O5267	O	1.000079	0.125108	0.677391
	C5268	C	0.963839	0.214282	0.796974
	C5269	C	0.969662	0.125122	0.802103
	C5270	C	0.963974	0.035938	0.796765
	C5271	C	0.952769	0.035593	0.786484
	C5272	C	0.946947	0.124696	0.781345
	C5273	C	0.952651	0.213967	0.786647
	C5274	C	0.934944	0.124585	0.770082
	C5275	C	0.981675	0.124614	0.813356
	C5276	C	0.898453	0.125275	0.770074
	C5277	C	0.886405	0.125116	0.781261
	C5278	C	0.880655	0.214107	0.786438
	C5279	C	0.869404	0.214336	0.796662
	C5280	C	0.863656	0.125336	0.801933
	C5281	C	0.869405	0.036306	0.796732
	C5282	C	0.880652	0.036161	0.786501
	C5283	C	0.851631	0.125256	0.813113
	C5284	C	0.898476	0.374786	0.729715
	C5285	C	0.886400	0.374993	0.718574
	C5286	C	0.880620	0.464195	0.713413
	C5287	C	0.869398	0.463969	0.703166
	C5288	C	0.863709	0.374865	0.697809
	C5289	C	0.869465	0.285741	0.703040
	C5290	C	0.880679	0.285920	0.713299
	C5291	C	0.851640	0.375053	0.686734
	C5292	C	0.934947	0.375059	0.729744
	C5293	C	0.946959	0.374887	0.718520
	C5294	C	0.952751	0.286155	0.713369
	C5295	C	0.963973	0.286081	0.703108
	C5296	C	0.969715	0.374902	0.697818
	C5297	C	0.963900	0.463652	0.702951
	C5298	C	0.952683	0.463642	0.713213
	C5299	C	0.981780	0.375055	0.686640
	H5300	H	0.968318	0.217447	0.699198
	H5301	H	0.948470	0.217342	0.717502
	H5302	H	0.968066	0.283253	0.801169
	H5303	H	0.948267	0.282929	0.782625
	H5304	H	0.917033	0.124604	0.727021
	H5305	H	0.916718	0.374908	0.772877
	H5306	H	0.833477	0.375248	0.810462
	H5307	H	1.000088	0.124535	0.689364
	H5308	H	0.885019	0.217126	0.717309
	H5309	H	0.865108	0.216581	0.699057
	H5310	H	0.865096	0.283229	0.800677
	H5311	H	0.884963	0.283194	0.782353
	H5312	H	0.865019	0.533261	0.699199
	H5313	H	0.884936	0.533215	0.717455
	H5314	H	0.884980	-0.033041	0.782517
	H5315	H	0.865101	-0.032709	0.800777
	H5316	H	0.948554	-0.033714	0.782310
	H5317	H	0.968304	-0.033263	0.800854
	H5318	H	0.948349	0.532538	0.717182
	H5319	H	0.968254	0.532525	0.698925
	Al5320	Al	0.916656	-0.499897	0.916764
	Al5321	Al	0.916634	-0.250255	0.916852
	Al5322	Al	0.833371	-0.249986	0.833277
	Al5323	Al	0.833303	-0.499827	0.833243
	O5324	O	0.930156	-0.459134	0.932647
	O5325	O	0.916619	-0.375148	0.905867
	O5326	O	0.916668	-0.125102	0.927774
	O5327	O	0.986430	-0.459117	0.984234
	O5328	O	0.903177	-0.458941	0.932625
	O5329	O	0.846883	-0.459565	0.984198
	O5330	O	0.903222	-0.290716	0.932708
	O5331	O	0.903113	-0.209268	0.900959
	O5332	O	0.846830	-0.208989	0.849226
	O5333	O	0.930098	-0.290820	0.932760
	O5334	O	0.930102	-0.209253	0.900880
	O5335	O	0.986480	-0.209225	0.849355
	O5336	O	0.846820	-0.291277	0.984216
	O5337	O	0.903201	-0.041085	0.900839
	O5338	O	0.846867	-0.040822	0.849124
	O5339	O	0.986477	-0.040844	0.849333
	O5340	O	0.930035	-0.041070	0.900864
	O5341	O	0.986438	-0.290870	0.984283
	O5342	O	0.833368	-0.125026	0.989220
	O5343	O	0.999930	-0.374975	0.844382
	C5344	C	0.963846	-0.285630	0.963652
	C5345	C	0.969627	-0.374898	0.968832
	C5346	C	0.963911	-0.464035	0.963560
	C5347	C	0.952725	-0.464119	0.953302
	C5348	C	0.946927	-0.374866	0.948102
	C5349	C	0.952630	-0.285621	0.953396
	C5350	C	0.934881	-0.375104	0.936940
	C5351	C	0.981668	-0.374898	0.980000
	C5352	C	0.898417	-0.374700	0.936884
	C5353	C	0.886335	-0.375016	0.948005
	C5354	C	0.880636	-0.285989	0.953340
	C5355	C	0.869428	-0.285869	0.963614
	C5356	C	0.863629	-0.374915	0.968733
	C5357	C	0.869367	-0.463832	0.963500
	C5358	C	0.880563	-0.464042	0.953217
	C5359	C	0.851613	-0.375319	0.979980
	C5360	C	0.898389	-0.125303	0.896617
	C5361	C	0.886378	-0.125292	0.885351
	C5362	C	0.880706	-0.036155	0.879982
	C5363	C	0.869479	-0.036040	0.869737
	C5364	C	0.863640	-0.125135	0.864659
	C5365	C	0.869359	-0.214387	0.869912
	C5366	C	0.880583	-0.214362	0.880175
	C5367	C	0.851604	-0.124925	0.853425
	C5368	C	0.934842	-0.124944	0.896642
	C5369	C	0.946881	-0.125055	0.885411
	C5370	C	0.952663	-0.213951	0.880201
	C5371	C	0.963870	-0.213657	0.869976
	C5372	C	0.969643	-0.124750	0.864756
	C5373	C	0.963845	-0.035826	0.869934
	C5374	C	0.952626	-0.036049	0.880159
	C5375	C	0.981707	-0.125129	0.853554
	H5376	H	0.968259	-0.282580	0.865940
	H5377	H	0.948354	-0.282763	0.884271
	H5378	H	0.968187	-0.216605	0.967717
	H5379	H	0.948230	-0.216563	0.949412
	H5380	H	0.916536	-0.375032	0.893899
	H5381	H	0.916673	-0.124966	0.939751
	H5382	H	0.833399	-0.125352	0.977246
	H5383	H	0.999819	-0.375467	0.856303
	H5384	H	0.884862	-0.283517	0.884298
	H5385	H	0.864977	-0.283422	0.865910
	H5386	H	0.865188	-0.216913	0.967800
	H5387	H	0.885041	-0.217011	0.949413
	H5388	H	0.865224	0.033178	0.865566
	H5389	H	0.885094	0.032919	0.883874
	H5390	H	0.884882	-0.532875	0.949224
	H5391	H	0.865023	-0.532776	0.967584
	H5392	H	0.948421	-0.533007	0.949224
	H5393	H	0.968262	-0.532913	0.967554
	H5394	H	0.948278	0.032738	0.884187
	H5395	H	0.968179	0.033006	0.865913
	Al5396	Al	0.916633	-0.000332	0.916770
	Al5397	Al	0.916647	0.249759	0.916821
	Al5398	Al	0.833346	0.250023	0.833367
	Al5399	Al	0.833365	-0.000042	0.833185
	O5400	O	0.930117	0.040796	0.932727
	O5401	O	0.916647	0.124804	0.905918
	O5402	O	0.916626	0.374977	0.927743
	O5403	O	0.986451	0.040673	0.984248
	O5404	O	0.903145	0.040875	0.932629
	O5405	O	0.846843	0.040828	0.984217
	O5406	O	0.903145	0.209078	0.932724
	O5407	O	0.903140	0.291152	0.900931
	O5408	O	0.846831	0.290787	0.849175
	O5409	O	0.930085	0.209188	0.932734
	O5410	O	0.930071	0.290780	0.900893
	O5411	O	0.986490	0.291059	0.849330
	O5412	O	0.846785	0.209178	0.984245
	O5413	O	0.903153	0.459255	0.900849
	O5414	O	0.846773	0.459012	0.849267
	O5415	O	0.986507	0.459159	0.849364
	O5416	O	0.930074	0.458970	0.900807
	O5417	O	0.986527	0.208856	0.984191
	O5418	O	0.833374	0.375008	0.989234
	O5419	O	1.000051	0.125007	0.844373
	C5420	C	0.963889	0.214046	0.963592
	C5421	C	0.969662	0.125074	0.968770
	C5422	C	0.963906	0.036107	0.963545
	C5423	C	0.952683	0.036396	0.953308
	C5424	C	0.946917	0.125304	0.948102
	C5425	C	0.952657	0.214266	0.953376
	C5426	C	0.934866	0.125036	0.936970
	C5427	C	0.981713	0.124663	0.979970
	C5428	C	0.898393	0.125005	0.936882
	C5429	C	0.886316	0.125220	0.948088
	C5430	C	0.880586	0.214384	0.953332
	C5431	C	0.869364	0.214279	0.963575
	C5432	C	0.863606	0.125233	0.968789
	C5433	C	0.869325	0.036137	0.963541
	C5434	C	0.880536	0.036285	0.953293
	C5435	C	0.851581	0.125080	0.979990
	C5436	C	0.898366	0.375133	0.896622
	C5437	C	0.886383	0.375085	0.885350
	C5438	C	0.880611	0.464241	0.880065
	C5439	C	0.869413	0.464255	0.869760
	C5440	C	0.863638	0.375066	0.864581
	C5441	C	0.869390	0.286016	0.869885
	C5442	C	0.880559	0.285838	0.880221
	C5443	C	0.851582	0.374955	0.853410
	C5444	C	0.934853	0.374781	0.896649
	C5445	C	0.946913	0.375026	0.885463
	C5446	C	0.952702	0.286128	0.880268
	C5447	C	0.963928	0.286064	0.870029
	C5448	C	0.969670	0.375108	0.864828
	C5449	C	0.963877	0.463966	0.870012
	C5450	C	0.952658	0.464052	0.880255
	C5451	C	0.981697	0.375068	0.853560
	H5452	H	0.968260	0.216991	0.866012
	H5453	H	0.948407	0.217103	0.884325
	H5454	H	0.968230	0.282801	0.967673
	H5455	H	0.948341	0.283291	0.949377
	H5456	H	0.916758	0.124897	0.893901
	H5457	H	0.916647	0.375245	0.939741
	H5458	H	0.833178	0.374784	0.977244
	H5459	H	1.000179	0.124987	0.856337
	H5460	H	0.884819	0.216599	0.884384
	H5461	H	0.864995	0.216689	0.865934
	H5462	H	0.865057	0.283161	0.967665
	H5463	H	0.884922	0.283319	0.949283
	H5464	H	0.865076	0.533317	0.865672
	H5465	H	0.884953	0.533466	0.884068
	H5466	H	0.884866	-0.032674	0.949253
	H5467	H	0.864998	-0.032597	0.967570
	H5468	H	0.948371	-0.032486	0.949228
	H5469	H	0.968208	-0.032814	0.967536
	H5470	H	0.948287	0.533022	0.884199
	H5471	H	0.968175	0.533082	0.865967
