data_Molecule from HDF5

_cell_length_a		117.950538
_cell_length_b		13.334836
_cell_length_c		37.781984
_cell_angle_alpha	90.009855
_cell_angle_beta	89.994689
_cell_angle_gamma	90.861217
_symmetry_space_group_name_H-M	'P 1'
_symmetry_Int_Tables_number		1

loop_
	_symmetry_equiv_pos_as_xyz
	x,y,z

loop_
	_atom_site_label
	_atom_site_type_symbol
	_atom_site_fract_x
	_atom_site_fract_y
	_atom_site_fract_z
	Al0	Al	0.083328	-0.500759	0.083414
	Al1	Al	0.083368	-0.251277	0.083228
	Al2	Al	-0.000037	-0.251510	0.000086
	Al3	Al	0.000017	-0.500919	-0.000095
	O4	O	0.095408	-0.458153	0.114058
	O5	O	0.083368	-0.376135	0.060400
	O6	O	0.083312	-0.126564	0.106044
	O7	O	0.154059	-0.462179	0.137953
	O8	O	0.070766	-0.462486	0.112095
	O9	O	0.012048	-0.458282	0.136322
	O10	O	0.071232	-0.294090	0.113731
	O11	O	0.070790	-0.212723	0.054284
	O12	O	0.012086	-0.208257	0.030583
	O13	O	0.095849	-0.289843	0.112517
	O14	O	0.095481	-0.208070	0.052998
	O15	O	0.154173	-0.212005	0.029199
	O16	O	0.012581	-0.289776	0.138238
	O17	O	0.071269	-0.044295	0.052707
	O18	O	0.012541	-0.039986	0.029245
	O19	O	0.154571	-0.043515	0.030416
	O20	O	0.095924	-0.039813	0.054498
	O21	O	0.154611	-0.293910	0.136114
	O22	O	-0.000006	-0.126485	0.144240
	O23	O	0.166711	-0.375464	0.022915
	C24	C	0.131126	-0.286233	0.125388
	C25	C	0.136858	-0.376799	0.128310
	C26	C	0.130559	-0.466365	0.128024
	C27	C	0.118815	-0.465407	0.125190
	C28	C	0.113093	-0.374782	0.122401
	C29	C	0.119389	-0.285189	0.122555
	C30	C	0.100567	-0.374005	0.116002
	C31	C	0.149401	-0.377634	0.134404
	C32	C	0.066090	-0.378083	0.115709
	C33	C	0.053549	-0.377220	0.122218
	C34	C	0.047800	-0.286477	0.124919
	C35	C	0.036066	-0.285586	0.127835
	C36	C	0.029776	-0.375361	0.128319
	C37	C	0.035518	-0.466005	0.125610
	C38	C	0.047254	-0.466917	0.122678
	C39	C	0.017232	-0.374469	0.134626
	C40	C	0.066100	-0.128246	0.050823
	C41	C	0.053539	-0.127347	0.044745
	C42	C	0.047829	-0.036684	0.042053
	C43	C	0.036086	-0.035461	0.039295
	C44	C	0.029791	-0.125130	0.038879
	C45	C	0.035495	-0.215717	0.041541
	C46	C	0.047229	-0.216872	0.044342
	C47	C	0.017244	-0.124256	0.032634
	C48	C	0.100632	-0.124062	0.050971
	C49	C	0.113169	-0.124748	0.044918
	C50	C	0.118869	-0.215547	0.041873
	C51	C	0.130595	-0.216629	0.039003
	C52	C	0.136889	-0.127009	0.038779
	C53	C	0.131181	-0.036169	0.041709
	C54	C	0.119444	-0.035035	0.044613
	C55	C	0.149450	-0.127609	0.032526
	H56	H	0.134871	-0.287244	0.037040
	H57	H	0.114117	-0.285205	0.041903
	H58	H	0.135869	-0.216619	0.125414
	H59	H	0.115105	-0.214228	0.120637
	H60	H	0.083317	-0.376560	0.035948
	H61	H	0.083079	-0.127037	0.130517
	H62	H	-0.000081	-0.126929	0.119641
	H63	H	0.166870	-0.376108	0.047237
	H64	H	0.051479	-0.287875	0.046225
	H65	H	0.030746	-0.285563	0.041464
	H66	H	0.031759	-0.214779	0.129880
	H67	H	0.052567	-0.216686	0.124728
	H68	H	0.031812	0.035212	0.037380
	H69	H	0.052578	0.032873	0.042174
	H70	H	0.051547	-0.537811	0.120761
	H71	H	0.030771	-0.535771	0.125953
	H72	H	0.114043	-0.535161	0.125158
	H73	H	0.134837	-0.537168	0.130156
	H74	H	0.115138	0.035689	0.046733
	H75	H	0.135951	0.033540	0.041780
	Al76	Al	0.083353	-0.001304	0.083441
	Al77	Al	0.083317	0.249041	0.083560
	Al78	Al	-0.000067	0.248767	0.000272
	Al79	Al	-0.000011	-0.001473	0.000306
	O80	O	0.095339	0.042214	0.114148
	O81	O	0.083369	0.123900	0.060736
	O82	O	0.083321	0.374311	0.106241
	O83	O	0.154114	0.038056	0.137869
	O84	O	0.070770	0.037032	0.112326
	O85	O	0.012045	0.041453	0.136433
	O86	O	0.071306	0.205541	0.114187
	O87	O	0.070760	0.287608	0.054904
	O88	O	0.012091	0.292247	0.030416
	O89	O	0.095886	0.210656	0.112394
	O90	O	0.095443	0.291970	0.052911
	O91	O	0.154086	0.287986	0.028760
	O92	O	0.012594	0.209813	0.138046
	O93	O	0.071283	0.456046	0.052803
	O94	O	0.012573	0.460740	0.028906
	O95	O	0.154590	0.456350	0.030653
	O96	O	0.095881	0.460623	0.054595
	O97	O	0.154522	0.206468	0.136265
	O98	O	0.000001	0.373215	0.144061
	O99	O	0.166693	0.124813	0.022569
	C100	C	0.131116	0.213627	0.125231
	C101	C	0.136830	0.122949	0.128221
	C102	C	0.130514	0.033525	0.128047
	C103	C	0.118780	0.034434	0.125269
	C104	C	0.113070	0.125178	0.122289
	C105	C	0.119375	0.214713	0.122391
	C106	C	0.100535	0.126037	0.116047
	C107	C	0.149383	0.122419	0.134399
	C108	C	0.066115	0.121540	0.115914
	C109	C	0.053565	0.122380	0.122184
	C110	C	0.047830	0.213012	0.124749
	C111	C	0.036108	0.214029	0.127628
	C112	C	0.029803	0.124437	0.128172
	C113	C	0.035531	0.033740	0.125491
	C114	C	0.047265	0.032755	0.122548
	C115	C	0.017234	0.125241	0.134440
	C116	C	0.066104	0.372002	0.051106
	C117	C	0.053565	0.372934	0.044865
	C118	C	0.047845	0.463595	0.042180
	C119	C	0.036132	0.464743	0.039082
	C120	C	0.029790	0.375240	0.038621
	C121	C	0.035505	0.284548	0.041438
	C122	C	0.047222	0.283397	0.044474
	C123	C	0.017243	0.376270	0.032309
	C124	C	0.100583	0.376068	0.051055
	C125	C	0.113105	0.375499	0.044785
	C126	C	0.118830	0.284730	0.041868
	C127	C	0.130547	0.283526	0.038829
	C128	C	0.136866	0.373154	0.038588
	C129	C	0.131135	0.463989	0.041633
	C130	C	0.119426	0.465148	0.044667
	C131	C	0.149416	0.372461	0.032406
	H132	H	0.134850	0.212949	0.036475
	H133	H	0.114057	0.215015	0.041828
	H134	H	0.135862	0.283643	0.125142
	H135	H	0.115062	0.285253	0.120227
	H136	H	0.083408	0.124228	0.036382
	H137	H	0.083457	0.374371	0.130776
	H138	H	0.000104	0.373372	0.119532
	H139	H	0.166800	0.124561	0.047123
	H140	H	0.051536	0.212896	0.046449
	H141	H	0.030733	0.214526	0.041295
	H142	H	0.031810	0.284691	0.129619
	H143	H	0.052581	0.282970	0.124542
	H144	H	0.031823	0.535309	0.037024
	H145	H	0.052601	0.533599	0.042399
	H146	H	0.051556	-0.037824	0.120565
	H147	H	0.030746	-0.035970	0.125778
	H148	H	0.114049	-0.035572	0.125335
	H149	H	0.134805	-0.036935	0.130184
	H150	H	0.115121	0.535944	0.046778
	H151	H	0.135925	0.533689	0.041502
	Al152	Al	0.083365	-0.500883	0.249972
	Al153	Al	0.083315	-0.250874	0.249911
	Al154	Al	0.000005	-0.251545	0.167021
	Al155	Al	-0.000010	-0.501766	0.166838
	O156	O	0.095413	-0.457716	0.280508
	O157	O	0.083357	-0.375902	0.227163
	O158	O	0.083330	-0.125849	0.272772
	O159	O	0.154109	-0.462153	0.304381
	O160	O	0.070790	-0.462370	0.278939
	O161	O	0.012128	-0.458701	0.303325
	O162	O	0.071205	-0.293668	0.280200
	O163	O	0.070841	-0.212161	0.220930
	O164	O	0.012075	-0.208318	0.197783
	O165	O	0.095874	-0.289361	0.278854
	O166	O	0.095440	-0.207734	0.219462
	O167	O	0.154141	-0.211636	0.195601
	O168	O	0.012576	-0.290267	0.304551
	O169	O	0.071297	-0.044092	0.219451
	O170	O	0.012578	-0.040037	0.195746
	O171	O	0.154623	-0.043158	0.197387
	O172	O	0.095946	-0.039324	0.221409
	O173	O	0.154563	-0.293573	0.302994
	O174	O	-0.000030	-0.126918	0.310651
	O175	O	0.166660	-0.375428	0.189404
	C176	C	0.131146	-0.286186	0.291972
	C177	C	0.136869	-0.377002	0.294741
	C178	C	0.130549	-0.466325	0.294523
	C179	C	0.118815	-0.465239	0.291569
	C180	C	0.113099	-0.374563	0.288774
	C181	C	0.119405	-0.285158	0.288984
	C182	C	0.100570	-0.373638	0.282395
	C183	C	0.149411	-0.377724	0.301141
	C184	C	0.066067	-0.377884	0.282339
	C185	C	0.053546	-0.377353	0.288741
	C186	C	0.047815	-0.286788	0.291508
	C187	C	0.036103	-0.285812	0.294479
	C188	C	0.029812	-0.375449	0.294954
	C189	C	0.035544	-0.466142	0.292287
	C190	C	0.047266	-0.467139	0.289254
	C191	C	0.017281	-0.374613	0.301153
	C192	C	0.066137	-0.127793	0.217512
	C193	C	0.053579	-0.127211	0.211654
	C194	C	0.047830	-0.036559	0.208860
	C195	C	0.036103	-0.035702	0.205983
	C196	C	0.029805	-0.125236	0.205749
	C197	C	0.035538	-0.215882	0.208311
	C198	C	0.047288	-0.216866	0.210994
	C199	C	0.017264	-0.124419	0.199486
	C200	C	0.100606	-0.123644	0.217760
	C201	C	0.113170	-0.124609	0.211672
	C202	C	0.118881	-0.215284	0.208823
	C203	C	0.130613	-0.216268	0.205951
	C204	C	0.136916	-0.126581	0.205568
	C205	C	0.131213	-0.035883	0.208581
	C206	C	0.119472	-0.034851	0.211421
	C207	C	0.149482	-0.127297	0.199278
	H208	H	0.134909	-0.287002	0.203879
	H209	H	0.114100	-0.285058	0.208796
	H210	H	0.135853	-0.216368	0.291883
	H211	H	0.115083	-0.214765	0.286643
	H212	H	0.083399	-0.375552	0.202653
	H213	H	0.083344	-0.126108	0.297334
	H214	H	-0.000164	-0.127062	0.286194
	H215	H	0.166782	-0.375250	0.213820
	H216	H	0.051567	-0.287902	0.212988
	H217	H	0.030769	-0.285662	0.208381
	H218	H	0.031794	-0.215159	0.296502
	H219	H	0.052550	-0.216902	0.291390
	H220	H	0.031809	0.035203	0.204227
	H221	H	0.052561	0.033271	0.209222
	H222	H	0.051605	-0.537859	0.287427
	H223	H	0.030798	-0.536046	0.292676
	H224	H	0.114111	-0.535399	0.291144
	H225	H	0.134860	-0.536849	0.296385
	H226	H	0.115161	0.035870	0.213401
	H227	H	0.135964	0.033770	0.208551
	Al228	Al	0.083363	-0.000856	0.250097
	Al229	Al	0.083315	0.248978	0.249920
	Al230	Al	-0.000004	0.248299	0.166763
	Al231	Al	-0.000026	-0.001632	0.167116
	O232	O	0.095400	0.042471	0.280724
	O233	O	0.083373	0.124387	0.227312
	O234	O	0.083298	0.373952	0.272675
	O235	O	0.154134	0.038071	0.304450
	O236	O	0.070791	0.037656	0.279046
	O237	O	0.012022	0.041405	0.302670
	O238	O	0.071271	0.206008	0.280498
	O239	O	0.070755	0.287372	0.221196
	O240	O	0.012078	0.291424	0.197274
	O241	O	0.095883	0.210977	0.279022
	O242	O	0.095449	0.292010	0.219397
	O243	O	0.154147	0.287694	0.195802
	O244	O	0.012560	0.210065	0.304344
	O245	O	0.071257	0.455539	0.219493
	O246	O	0.012563	0.459654	0.195706
	O247	O	0.154617	0.456199	0.197384
	O248	O	0.095927	0.460395	0.221193
	O249	O	0.154610	0.206453	0.302658
	O250	O	-0.000024	0.373191	0.310947
	O251	O	0.166715	0.124340	0.189388
	C252	C	0.131137	0.214004	0.292051
	C253	C	0.136861	0.123335	0.294938
	C254	C	0.130550	0.033684	0.294345
	C255	C	0.118830	0.034767	0.291535
	C256	C	0.113097	0.125544	0.288848
	C257	C	0.119414	0.215142	0.289207
	C258	C	0.100565	0.126547	0.282649
	C259	C	0.149422	0.122569	0.300799
	C260	C	0.066100	0.122114	0.282408
	C261	C	0.053537	0.122604	0.288770
	C262	C	0.047794	0.213250	0.291485
	C263	C	0.036056	0.214013	0.294355
	C264	C	0.029752	0.124341	0.294706
	C265	C	0.035509	0.033727	0.292126
	C266	C	0.047244	0.032895	0.289197
	C267	C	0.017207	0.125481	0.300920
	C268	C	0.066088	0.371582	0.217700
	C269	C	0.053540	0.372458	0.211632
	C270	C	0.047826	0.463022	0.209011
	C271	C	0.036101	0.463988	0.206174
	C272	C	0.029789	0.374363	0.205628
	C273	C	0.035530	0.283780	0.208117
	C274	C	0.047243	0.282804	0.210966
	C275	C	0.017260	0.375372	0.199292
	C276	C	0.100594	0.375788	0.217660
	C277	C	0.113153	0.375460	0.211416
	C278	C	0.118869	0.284547	0.208708
	C279	C	0.130602	0.283403	0.205905
	C280	C	0.136904	0.373002	0.205553
	C281	C	0.131199	0.463899	0.208473
	C282	C	0.119470	0.465001	0.211251
	C283	C	0.149455	0.372057	0.199222
	H284	H	0.134892	0.212739	0.203843
	H285	H	0.114134	0.214766	0.208839
	H286	H	0.135940	0.283533	0.292401
	H287	H	0.115156	0.286054	0.287610
	H288	H	0.083493	0.124191	0.202835
	H289	H	0.083386	0.374074	0.297164
	H290	H	-0.000052	0.373282	0.286521
	H291	H	0.166696	0.124971	0.213873
	H292	H	0.051557	0.212181	0.212671
	H293	H	0.030780	0.213852	0.207827
	H294	H	0.031794	0.284912	0.296258
	H295	H	0.052531	0.282886	0.291087
	H296	H	0.031790	0.534481	0.204317
	H297	H	0.052575	0.532799	0.209212
	H298	H	0.051545	-0.037750	0.287125
	H299	H	0.030776	-0.036257	0.292381
	H300	H	0.114021	-0.034922	0.291586
	H301	H	0.134812	-0.037275	0.296479
	H302	H	0.115164	0.535747	0.213303
	H303	H	0.135959	0.533823	0.208358
	Al304	Al	0.083352	-0.501077	0.416598
	Al305	Al	0.083297	-0.251161	0.416480
	Al306	Al	0.000052	-0.251994	0.333408
	Al307	Al	0.000058	-0.501738	0.333697
	O308	O	0.095470	-0.457867	0.446987
	O309	O	0.083336	-0.376218	0.393828
	O310	O	0.083310	-0.126271	0.439317
	O311	O	0.154136	-0.461678	0.471098
	O312	O	0.070762	-0.462698	0.445412
	O313	O	0.012121	-0.458208	0.469530
	O314	O	0.071242	-0.294416	0.447019
	O315	O	0.070802	-0.212599	0.387455
	O316	O	0.012117	-0.208704	0.364017
	O317	O	0.095830	-0.289655	0.445681
	O318	O	0.095389	-0.207709	0.385977
	O319	O	0.154092	-0.211588	0.362279
	O320	O	0.012629	-0.289825	0.471294
	O321	O	0.071202	-0.044190	0.386411
	O322	O	0.012508	-0.040095	0.362517
	O323	O	0.154560	-0.043260	0.363794
	O324	O	0.095890	-0.039182	0.387881
	O325	O	0.154579	-0.293202	0.469450
	O326	O	-0.000003	-0.126705	0.477295
	O327	O	0.166651	-0.375231	0.356270
	C328	C	0.131167	-0.285841	0.458653
	C329	C	0.136891	-0.376538	0.461456
	C330	C	0.130584	-0.466052	0.461138
	C331	C	0.118871	-0.464878	0.458206
	C332	C	0.113144	-0.374356	0.455398
	C333	C	0.119442	-0.284664	0.455722
	C334	C	0.100592	-0.373737	0.449100
	C335	C	0.149414	-0.377414	0.467666
	C336	C	0.066082	-0.378493	0.449000
	C337	C	0.053537	-0.377727	0.455356
	C338	C	0.047838	-0.286950	0.458219
	C339	C	0.036116	-0.285710	0.461142
	C340	C	0.029819	-0.375229	0.461597
	C341	C	0.035519	-0.465948	0.458802
	C342	C	0.047244	-0.467280	0.455819
	C343	C	0.017284	-0.374262	0.467830
	C344	C	0.066080	-0.128073	0.384203
	C345	C	0.053511	-0.127380	0.378089
	C346	C	0.047779	-0.036627	0.375531
	C347	C	0.036046	-0.035336	0.372624
	C348	C	0.029755	-0.124819	0.372248
	C349	C	0.035475	-0.215500	0.374802
	C350	C	0.047208	-0.216715	0.377611
	C351	C	0.017216	-0.124418	0.365982
	C352	C	0.100559	-0.123498	0.384195
	C353	C	0.113078	-0.124396	0.378042
	C354	C	0.118792	-0.215117	0.375237
	C355	C	0.130525	-0.216206	0.372246
	C356	C	0.136848	-0.126523	0.371882
	C357	C	0.131119	-0.035758	0.374811
	C358	C	0.119392	-0.034654	0.377787
	C359	C	0.149395	-0.127059	0.365721
	H360	H	0.134797	-0.286950	0.370243
	H361	H	0.114021	-0.285023	0.375427
	H362	H	0.135910	-0.216040	0.458618
	H363	H	0.115161	-0.213983	0.453537
	H364	H	0.083444	-0.376546	0.369287
	H365	H	0.083253	-0.126629	0.463725
	H366	H	0.000009	-0.126583	0.452766
	H367	H	0.166737	-0.375195	0.380705
	H368	H	0.051489	-0.287721	0.379461
	H369	H	0.030706	-0.285349	0.374594
	H370	H	0.031825	-0.214714	0.462816
	H371	H	0.052585	-0.217097	0.457983
	H372	H	0.031776	0.035612	0.370741
	H373	H	0.052530	0.033016	0.375791
	H374	H	0.051519	-0.538083	0.453754
	H375	H	0.030737	-0.535743	0.458830
	H376	H	0.114141	-0.534933	0.457963
	H377	H	0.134881	-0.536832	0.463100
	H378	H	0.115108	0.036101	0.379908
	H379	H	0.135881	0.034118	0.374751
	Al380	Al	0.083301	-0.000784	0.416860
	Al381	Al	0.083335	0.249221	0.416660
	Al382	Al	0.000007	0.248149	0.333555
	Al383	Al	-0.000016	-0.001781	0.333338
	O384	O	0.095373	0.042102	0.447247
	O385	O	0.083357	0.123990	0.394012
	O386	O	0.083326	0.373973	0.439357
	O387	O	0.154082	0.038192	0.471168
	O388	O	0.070782	0.037469	0.445876
	O389	O	0.012044	0.041625	0.469379
	O390	O	0.071227	0.205896	0.447124
	O391	O	0.070800	0.287271	0.387514
	O392	O	0.012107	0.290955	0.363974
	O393	O	0.095820	0.210551	0.445716
	O394	O	0.095484	0.291962	0.386328
	O395	O	0.154158	0.288070	0.362138
	O396	O	0.012512	0.210094	0.471056
	O397	O	0.071301	0.455673	0.385800
	O398	O	0.012527	0.459377	0.362657
	O399	O	0.154682	0.456293	0.364287
	O400	O	0.095939	0.460397	0.387813
	O401	O	0.154523	0.206825	0.469429
	O402	O	0.000024	0.373424	0.477283
	O403	O	0.166678	0.124714	0.355883
	C404	C	0.131107	0.213873	0.458329
	C405	C	0.136818	0.123324	0.461417
	C406	C	0.130491	0.033780	0.461194
	C407	C	0.118760	0.034812	0.458260
	C408	C	0.113060	0.125535	0.455338
	C409	C	0.119387	0.214983	0.455487
	C410	C	0.100521	0.126231	0.449148
	C411	C	0.149369	0.122584	0.467621
	C412	C	0.066070	0.121929	0.449185
	C413	C	0.053532	0.122705	0.455425
	C414	C	0.047804	0.213328	0.458166
	C415	C	0.036075	0.214295	0.461032
	C416	C	0.029765	0.124853	0.461451
	C417	C	0.035484	0.034282	0.458645
	C418	C	0.047215	0.033242	0.455790
	C419	C	0.017214	0.125744	0.467556
	C420	C	0.066126	0.371614	0.383981
	C421	C	0.053582	0.372478	0.377842
	C422	C	0.047818	0.463112	0.375456
	C423	C	0.036085	0.464046	0.372753
	C424	C	0.029780	0.374387	0.372220
	C425	C	0.035553	0.283784	0.374655
	C426	C	0.047280	0.282855	0.377393
	C427	C	0.017256	0.374881	0.366058
	C428	C	0.100628	0.375679	0.384351
	C429	C	0.113177	0.375199	0.378212
	C430	C	0.118903	0.284572	0.375306
	C431	C	0.130629	0.283497	0.372404
	C432	C	0.136938	0.373099	0.372132
	C433	C	0.131205	0.463684	0.375061
	C434	C	0.119468	0.464730	0.377928
	C435	C	0.149507	0.372324	0.365936
	H436	H	0.134942	0.212788	0.370331
	H437	H	0.114149	0.214556	0.375271
	H438	H	0.135887	0.283802	0.458372
	H439	H	0.115131	0.285760	0.453399
	H440	H	0.083558	0.124032	0.369593
	H441	H	0.083164	0.374144	0.463803
	H442	H	0.000109	0.372688	0.452770
	H443	H	0.166710	0.124690	0.380514
	H444	H	0.051643	0.212346	0.379057
	H445	H	0.030837	0.213817	0.374216
	H446	H	0.031773	0.285280	0.462831
	H447	H	0.052540	0.283197	0.457916
	H448	H	0.031781	0.534568	0.370929
	H449	H	0.052545	0.533057	0.375640
	H450	H	0.051508	-0.037390	0.453713
	H451	H	0.030745	-0.035536	0.458744
	H452	H	0.113987	-0.034845	0.458330
	H453	H	0.134769	-0.036950	0.463406
	H454	H	0.115169	0.535350	0.380138
	H455	H	0.135977	0.533729	0.375054
	Al456	Al	0.083339	-0.500438	0.583453
	Al457	Al	0.083307	-0.250427	0.583548
	Al458	Al	-0.000008	-0.251692	0.499923
	Al459	Al	0.000020	-0.501690	0.499928
	O460	O	0.095445	-0.457337	0.613995
	O461	O	0.083298	-0.375427	0.560779
	O462	O	0.083288	-0.125621	0.606114
	O463	O	0.154076	-0.461862	0.638024
	O464	O	0.070747	-0.462103	0.612391
	O465	O	0.012013	-0.457660	0.636039
	O466	O	0.071241	-0.293775	0.614217
	O467	O	0.070725	-0.212290	0.554495
	O468	O	0.012092	-0.208199	0.530708
	O469	O	0.095851	-0.288742	0.612481
	O470	O	0.095426	-0.207591	0.552931
	O471	O	0.154130	-0.211568	0.528816
	O472	O	0.012491	-0.289238	0.637578
	O473	O	0.071288	-0.043787	0.552698
	O474	O	0.012552	-0.039904	0.528969
	O475	O	0.154664	-0.043026	0.530571
	O476	O	0.095921	-0.039057	0.554514
	O477	O	0.154562	-0.293577	0.636334
	O478	O	0.000016	-0.126128	0.644146
	O479	O	0.166679	-0.375308	0.522631
	C480	C	0.131147	-0.285325	0.625423
	C481	C	0.136838	-0.376234	0.628376
	C482	C	0.130512	-0.465779	0.627995
	C483	C	0.118791	-0.464588	0.625095
	C484	C	0.113096	-0.373715	0.622307
	C485	C	0.119418	-0.284114	0.622538
	C486	C	0.100563	-0.373174	0.615978
	C487	C	0.149400	-0.377600	0.634493
	C488	C	0.066049	-0.377780	0.615914
	C489	C	0.053501	-0.376994	0.622192
	C490	C	0.047766	-0.286371	0.624810
	C491	C	0.036036	-0.284958	0.627628
	C492	C	0.029715	-0.374396	0.628007
	C493	C	0.035430	-0.465229	0.625238
	C494	C	0.047162	-0.466455	0.622447
	C495	C	0.017178	-0.373727	0.634183
	C496	C	0.066104	-0.127629	0.550922
	C497	C	0.053545	-0.126749	0.544459
	C498	C	0.047795	-0.036055	0.541825
	C499	C	0.036079	-0.035155	0.538997
	C500	C	0.029779	-0.124819	0.538663
	C501	C	0.035507	-0.215547	0.541285
	C502	C	0.047236	-0.216389	0.544028
	C503	C	0.017250	-0.124305	0.532462
	C504	C	0.100614	-0.123522	0.551016
	C505	C	0.113155	-0.124060	0.544784
	C506	C	0.118885	-0.214811	0.542024
	C507	C	0.130630	-0.215753	0.539109
	C508	C	0.136936	-0.126202	0.538709
	C509	C	0.131198	-0.035580	0.541649
	C510	C	0.119478	-0.034508	0.544519
	C511	C	0.149466	-0.126936	0.532467
	H512	H	0.134927	-0.286333	0.536987
	H513	H	0.114113	-0.284521	0.541990
	H514	H	0.135941	-0.215740	0.625388
	H515	H	0.115137	-0.213207	0.620500
	H516	H	0.083329	-0.375444	0.536281
	H517	H	0.083173	-0.125278	0.630703
	H518	H	0.000071	-0.126558	0.619643
	H519	H	0.166631	-0.375407	0.547131
	H520	H	0.051538	-0.287193	0.545990
	H521	H	0.030753	-0.285014	0.541133
	H522	H	0.031744	-0.214365	0.629643
	H523	H	0.052532	-0.216447	0.624553
	H524	H	0.031762	0.035315	0.536994
	H525	H	0.052554	0.033823	0.542075
	H526	H	0.051452	-0.537115	0.620490
	H527	H	0.030667	-0.535137	0.625349
	H528	H	0.114001	-0.534343	0.625047
	H529	H	0.134801	-0.536404	0.629945
	H530	H	0.115189	0.036330	0.546481
	H531	H	0.135962	0.034473	0.541440
	Al532	Al	0.083349	-0.000481	0.583310
	Al533	Al	0.083327	0.249643	0.583228
	Al534	Al	-0.000045	0.248386	0.500072
	Al535	Al	0.000005	-0.001605	0.500032
	O536	O	0.095369	0.042877	0.614110
	O537	O	0.083385	0.124397	0.560663
	O538	O	0.083256	0.374560	0.605955
	O539	O	0.154068	0.038492	0.637944
	O540	O	0.070817	0.037995	0.612306
	O541	O	0.012111	0.041654	0.636432
	O542	O	0.071250	0.206459	0.613839
	O543	O	0.070751	0.287524	0.554115
	O544	O	0.012091	0.291346	0.530531
	O545	O	0.095868	0.211161	0.612238
	O546	O	0.095392	0.293093	0.552711
	O547	O	0.154108	0.288303	0.528782
	O548	O	0.012528	0.210060	0.637969
	O549	O	0.071270	0.455952	0.552837
	O550	O	0.012553	0.459851	0.528971
	O551	O	0.154617	0.456575	0.530594
	O552	O	0.095932	0.461576	0.554611
	O553	O	0.154555	0.206735	0.636378
	O554	O	-0.000039	0.373814	0.644133
	O555	O	0.166701	0.124941	0.522512
	C556	C	0.131126	0.214232	0.625506
	C557	C	0.136844	0.123574	0.628337
	C558	C	0.130508	0.034132	0.628056
	C559	C	0.118786	0.035475	0.625153
	C560	C	0.113073	0.126214	0.622341
	C561	C	0.119411	0.215569	0.622557
	C562	C	0.100533	0.126933	0.615951
	C563	C	0.149378	0.122864	0.634447
	C564	C	0.066106	0.122385	0.615899
	C565	C	0.053558	0.122966	0.622144
	C566	C	0.047814	0.213644	0.624864
	C567	C	0.036082	0.214774	0.627756
	C568	C	0.029773	0.125117	0.628308
	C569	C	0.035503	0.034428	0.625623
	C570	C	0.047240	0.033358	0.622723
	C571	C	0.017228	0.125871	0.634426
	C572	C	0.066070	0.372097	0.550837
	C573	C	0.053523	0.373245	0.544976
	C574	C	0.047788	0.463943	0.542212
	C575	C	0.036053	0.464861	0.539362
	C576	C	0.029777	0.375078	0.538809
	C577	C	0.035520	0.284437	0.541297
	C578	C	0.047244	0.283493	0.544161
	C579	C	0.017236	0.375417	0.532491
	C580	C	0.100592	0.376994	0.551098
	C581	C	0.113146	0.376039	0.544904
	C582	C	0.118864	0.285220	0.542075
	C583	C	0.130588	0.284028	0.539082
	C584	C	0.136912	0.373487	0.538846
	C585	C	0.131205	0.464350	0.541773
	C586	C	0.119479	0.465504	0.544752
	C587	C	0.149435	0.372743	0.532460
	H588	H	0.134867	0.213360	0.536900
	H589	H	0.114117	0.215326	0.542084
	H590	H	0.135858	0.284469	0.625531
	H591	H	0.115135	0.286225	0.620425
	H592	H	0.083314	0.123983	0.536241
	H593	H	0.083092	0.373913	0.630466
	H594	H	-0.000162	0.374111	0.619586
	H595	H	0.166804	0.125040	0.547092
	H596	H	0.051537	0.212551	0.545916
	H597	H	0.030784	0.214768	0.540964
	H598	H	0.031781	0.285338	0.629622
	H599	H	0.052578	0.283591	0.624692
	H600	H	0.031730	0.535335	0.537548
	H601	H	0.052542	0.533959	0.542412
	H602	H	0.051529	-0.037558	0.620892
	H603	H	0.030729	-0.035375	0.625881
	H604	H	0.114006	-0.034346	0.624992
	H605	H	0.134818	-0.036441	0.630027
	H606	H	0.115189	0.536101	0.546917
	H607	H	0.135969	0.534254	0.541779
	Al608	Al	0.083339	-0.500783	0.750025
	Al609	Al	0.083333	-0.250638	0.750116
	Al610	Al	-0.000001	-0.251158	0.666891
	Al611	Al	-0.000006	-0.501037	0.666861
	O612	O	0.095408	-0.457928	0.780756
	O613	O	0.083391	-0.375657	0.727378
	O614	O	0.083339	-0.125614	0.772812
	O615	O	0.154130	-0.461615	0.804501
	O616	O	0.070782	-0.462860	0.779052
	O617	O	0.012103	-0.458337	0.802678
	O618	O	0.071308	-0.294210	0.780672
	O619	O	0.070754	-0.212699	0.721287
	O620	O	0.012096	-0.208273	0.697465
	O621	O	0.095899	-0.289563	0.778919
	O622	O	0.095424	-0.207236	0.719649
	O623	O	0.154056	-0.211839	0.695739
	O624	O	0.012606	-0.290096	0.804487
	O625	O	0.071308	-0.044196	0.719281
	O626	O	0.012550	-0.039929	0.695921
	O627	O	0.154556	-0.043436	0.697122
	O628	O	0.095900	-0.038949	0.721349
	O629	O	0.154599	-0.293153	0.802979
	O630	O	0.000093	-0.125826	0.810745
	O631	O	0.166622	-0.375240	0.689602
	C632	C	0.131169	-0.285923	0.792013
	C633	C	0.136902	-0.376646	0.794927
	C634	C	0.130588	-0.466489	0.794449
	C635	C	0.118860	-0.465499	0.791542
	C636	C	0.113132	-0.374766	0.788740
	C637	C	0.119450	-0.285149	0.789021
	C638	C	0.100578	-0.373832	0.782450
	C639	C	0.149453	-0.377209	0.801021
	C640	C	0.066125	-0.378240	0.782599
	C641	C	0.053600	-0.377673	0.789204
	C642	C	0.047868	-0.287123	0.791832
	C643	C	0.036138	-0.285786	0.794617
	C644	C	0.029826	-0.375391	0.794931
	C645	C	0.035563	-0.466014	0.792128
	C646	C	0.047298	-0.467261	0.789353
	C647	C	0.017286	-0.374504	0.800978
	C648	C	0.066101	-0.128105	0.717703
	C649	C	0.053564	-0.127193	0.711583
	C650	C	0.047834	-0.036560	0.708819
	C651	C	0.036109	-0.035500	0.706039
	C652	C	0.029798	-0.125114	0.705690
	C653	C	0.035524	-0.215836	0.708361
	C654	C	0.047263	-0.216871	0.711203
	C655	C	0.017255	-0.124334	0.699371
	C656	C	0.100588	-0.123399	0.717741
	C657	C	0.113119	-0.124255	0.711612
	C658	C	0.118823	-0.214895	0.708710
	C659	C	0.130548	-0.215980	0.705746
	C660	C	0.136864	-0.126487	0.705488
	C661	C	0.131158	-0.035841	0.708355
	C662	C	0.119437	-0.034627	0.711328
	C663	C	0.149389	-0.127428	0.699118
	H664	H	0.134848	-0.286575	0.703785
	H665	H	0.114100	-0.284673	0.709036
	H666	H	0.135912	-0.216109	0.792203
	H667	H	0.115163	-0.214331	0.787056
	H668	H	0.083489	-0.375433	0.702930
	H669	H	0.083383	-0.125976	0.797256
	H670	H	0.000244	-0.125150	0.786276
	H671	H	0.166457	-0.375399	0.714122
	H672	H	0.051576	-0.287529	0.713087
	H673	H	0.030764	-0.285464	0.708145
	H674	H	0.031866	-0.214922	0.796838
	H675	H	0.052654	-0.217261	0.791857
	H676	H	0.031813	0.035308	0.704037
	H677	H	0.052585	0.033231	0.708935
	H678	H	0.051580	-0.537878	0.787436
	H679	H	0.030801	-0.535786	0.792463
	H680	H	0.114089	-0.535258	0.791464
	H681	H	0.134906	-0.537090	0.796480
	H682	H	0.115143	0.036148	0.713617
	H683	H	0.135940	0.033958	0.708380
	Al684	Al	0.083349	-0.000673	0.750051
	Al685	Al	0.083299	0.249422	0.750004
	Al686	Al	-0.000016	0.248662	0.666846
	Al687	Al	0.000016	-0.001374	0.666881
	O688	O	0.095327	0.042710	0.780870
	O689	O	0.083358	0.124327	0.727343
	O690	O	0.083327	0.374268	0.772790
	O691	O	0.154033	0.038426	0.804502
	O692	O	0.070779	0.037734	0.778912
	O693	O	0.012075	0.041479	0.803117
	O694	O	0.071227	0.205909	0.780571
	O695	O	0.070729	0.287656	0.721220
	O696	O	0.012041	0.292158	0.697407
	O697	O	0.095877	0.211121	0.778862
	O698	O	0.095368	0.292964	0.719380
	O699	O	0.154126	0.288194	0.695932
	O700	O	0.012534	0.209873	0.804408
	O701	O	0.071163	0.456156	0.719755
	O702	O	0.012531	0.460399	0.695759
	O703	O	0.154606	0.456700	0.697325
	O704	O	0.095909	0.461318	0.721251
	O705	O	0.154522	0.206693	0.802787
	O706	O	0.000069	0.373817	0.810677
	O707	O	0.166639	0.124487	0.689429
	C708	C	0.131067	0.214335	0.791830
	C709	C	0.136768	0.123611	0.795007
	C710	C	0.130470	0.034095	0.794795
	C711	C	0.118740	0.035203	0.791844
	C712	C	0.113050	0.125911	0.788774
	C713	C	0.119341	0.215500	0.788925
	C714	C	0.100505	0.126702	0.782606
	C715	C	0.149332	0.122732	0.800999
	C716	C	0.066075	0.122043	0.782597
	C717	C	0.053524	0.122803	0.788755
	C718	C	0.047768	0.213436	0.791454
	C719	C	0.036036	0.214318	0.794316
	C720	C	0.029769	0.124683	0.794849
	C721	C	0.035527	0.034013	0.792052
	C722	C	0.047271	0.033106	0.789174
	C723	C	0.017235	0.125334	0.801043
	C724	C	0.066033	0.372018	0.717763
	C725	C	0.053490	0.372547	0.711591
	C726	C	0.047786	0.463396	0.708656
	C727	C	0.036043	0.464547	0.705725
	C728	C	0.029741	0.375080	0.705504
	C729	C	0.035455	0.284215	0.708316
	C730	C	0.047176	0.283011	0.711228
	C731	C	0.017192	0.375945	0.699351
	C732	C	0.100584	0.376804	0.717720
	C733	C	0.113127	0.375914	0.711571
	C734	C	0.118865	0.285181	0.708704
	C735	C	0.130591	0.283835	0.705840
	C736	C	0.136931	0.373238	0.705713
	C737	C	0.131194	0.464013	0.708600
	C738	C	0.119482	0.465234	0.711395
	C739	C	0.149446	0.372845	0.699401
	H740	H	0.134891	0.213208	0.703595
	H741	H	0.114075	0.215680	0.708675
	H742	H	0.135826	0.284207	0.791755
	H743	H	0.115026	0.286388	0.786869
	H744	H	0.083458	0.124475	0.703102
	H745	H	0.083227	0.374655	0.797253
	H746	H	-0.000043	0.373541	0.786274
	H747	H	0.166599	0.124940	0.713910
	H748	H	0.051484	0.212386	0.713312
	H749	H	0.030726	0.214351	0.708193
	H750	H	0.031721	0.285078	0.796053
	H751	H	0.052482	0.283572	0.791198
	H752	H	0.031736	0.535257	0.703633
	H753	H	0.052535	0.533221	0.708650
	H754	H	0.051583	-0.037414	0.787145
	H755	H	0.030793	-0.035989	0.792057
	H756	H	0.113997	-0.034917	0.792036
	H757	H	0.134773	-0.036713	0.797058
	H758	H	0.115181	0.536058	0.713360
	H759	H	0.135964	0.533843	0.708399
	Al760	Al	0.083353	-0.500853	0.916943
	Al761	Al	0.083309	-0.250373	0.916813
	Al762	Al	-0.000003	-0.251068	0.833155
	Al763	Al	0.000033	-0.501328	0.833278
	O764	O	0.095408	-0.456925	0.947451
	O765	O	0.083323	-0.375579	0.894253
	O766	O	0.083280	-0.125367	0.939583
	O767	O	0.154090	-0.462028	0.971384
	O768	O	0.070819	-0.462242	0.945827
	O769	O	0.012118	-0.457831	0.969552
	O770	O	0.071289	-0.293882	0.947592
	O771	O	0.070815	-0.212062	0.887974
	O772	O	0.012076	-0.208241	0.863848
	O773	O	0.095940	-0.288642	0.945533
	O774	O	0.095363	-0.206629	0.886149
	O775	O	0.154167	-0.210984	0.862548
	O776	O	0.012570	-0.289544	0.971262
	O777	O	0.071270	-0.043876	0.886000
	O778	O	0.012561	-0.039815	0.862661
	O779	O	0.154575	-0.042620	0.864016
	O780	O	0.095929	-0.038501	0.888134
	O781	O	0.154644	-0.293737	0.969633
	O782	O	-0.000017	-0.126192	0.977495
	O783	O	0.166642	-0.374936	0.856169
	C784	C	0.131194	-0.285907	0.958482
	C785	C	0.136916	-0.376595	0.961441
	C786	C	0.130599	-0.466157	0.961275
	C787	C	0.118877	-0.464893	0.958327
	C788	C	0.113149	-0.374169	0.955347
	C789	C	0.119457	-0.284592	0.955562
	C790	C	0.100610	-0.373047	0.949204
	C791	C	0.149443	-0.377541	0.967805
	C792	C	0.066130	-0.377880	0.949461
	C793	C	0.053581	-0.376931	0.955599
	C794	C	0.047860	-0.286257	0.958249
	C795	C	0.036138	-0.285116	0.961049
	C796	C	0.029830	-0.374551	0.961529
	C797	C	0.035543	-0.465290	0.958531
	C798	C	0.047271	-0.466437	0.955730
	C799	C	0.017287	-0.373893	0.967775
	C800	C	0.066116	-0.127869	0.884254
	C801	C	0.053585	-0.127320	0.878043
	C802	C	0.047849	-0.036790	0.875237
	C803	C	0.036120	-0.035705	0.872381
	C804	C	0.029801	-0.125259	0.872104
	C805	C	0.035541	-0.215765	0.874920
	C806	C	0.047277	-0.216908	0.877732
	C807	C	0.017265	-0.124350	0.865956
	C808	C	0.100596	-0.123018	0.884560
	C809	C	0.113126	-0.124070	0.878171
	C810	C	0.118861	-0.214705	0.875340
	C811	C	0.130600	-0.215634	0.872450
	C812	C	0.136897	-0.126076	0.872154
	C813	C	0.131173	-0.035399	0.875181
	C814	C	0.119440	-0.034497	0.878027
	C815	C	0.149436	-0.126767	0.865943
	H816	H	0.134932	-0.286046	0.870161
	H817	H	0.114126	-0.284648	0.875301
	H818	H	0.135973	-0.216054	0.958339
	H819	H	0.115184	-0.213898	0.953364
	H820	H	0.083340	-0.375645	0.869848
	H821	H	0.083180	-0.125167	0.964067
	H822	H	0.000093	-0.125772	0.953039
	H823	H	0.166610	-0.375017	0.880590
	H824	H	0.051577	-0.287684	0.879734
	H825	H	0.030802	-0.285673	0.874905
	H826	H	0.031814	-0.214353	0.962976
	H827	H	0.052600	-0.216371	0.958132
	H828	H	0.031824	0.035062	0.870395
	H829	H	0.052600	0.032971	0.875282
	H830	H	0.051579	-0.536988	0.953560
	H831	H	0.030782	-0.535095	0.958432
	H832	H	0.114132	-0.534779	0.958219
	H833	H	0.134905	-0.536879	0.963328
	H834	H	0.115121	0.036152	0.880128
	H835	H	0.135912	0.034996	0.874995
	Al836	Al	0.083317	-0.000477	0.916782
	Al837	Al	0.083314	0.249069	0.916874
	Al838	Al	-0.000001	0.249012	0.833644
	Al839	Al	0.000011	-0.001125	0.833616
	O840	O	0.095386	0.042935	0.947404
	O841	O	0.083369	0.124403	0.893978
	O842	O	0.083393	0.374024	0.939676
	O843	O	0.154100	0.038027	0.970972
	O844	O	0.070678	0.037500	0.945562
	O845	O	0.012041	0.041370	0.969566
	O846	O	0.071206	0.205792	0.947142
	O847	O	0.070791	0.287761	0.887967
	O848	O	0.012129	0.291803	0.864056
	O849	O	0.095901	0.211352	0.945619
	O850	O	0.095418	0.292810	0.886289
	O851	O	0.154126	0.288565	0.862477
	O852	O	0.012456	0.209692	0.971379
	O853	O	0.071262	0.455829	0.886177
	O854	O	0.012559	0.460201	0.862458
	O855	O	0.154588	0.456632	0.863984
	O856	O	0.095929	0.461049	0.888290
	O857	O	0.154641	0.206201	0.969388
	O858	O	0.000023	0.373789	0.977380
	O859	O	0.166612	0.125185	0.856065
	C860	C	0.131143	0.214149	0.958713
	C861	C	0.136860	0.123498	0.961633
	C862	C	0.130544	0.033971	0.961501
	C863	C	0.118803	0.035260	0.958727
	C864	C	0.113096	0.125943	0.955716
	C865	C	0.119408	0.215501	0.955941
	C866	C	0.100560	0.126919	0.949289
	C867	C	0.149427	0.122387	0.967628
	C868	C	0.066022	0.122016	0.949136
	C869	C	0.053492	0.123164	0.955546
	C870	C	0.047747	0.213856	0.958100
	C871	C	0.036002	0.214805	0.960955
	C872	C	0.029726	0.124976	0.961580
	C873	C	0.035467	0.034512	0.958705
	C874	C	0.047181	0.033563	0.955793
	C875	C	0.017191	0.125506	0.967778
	C876	C	0.066084	0.372098	0.884335
	C877	C	0.053554	0.372519	0.878205
	C878	C	0.047845	0.463250	0.875337
	C879	C	0.036116	0.464533	0.872501
	C880	C	0.029803	0.375134	0.872140
	C881	C	0.035511	0.284275	0.874916
	C882	C	0.047236	0.283067	0.877826
	C883	C	0.017257	0.376026	0.865882
	C884	C	0.100590	0.376584	0.884499
	C885	C	0.113139	0.375472	0.878358
	C886	C	0.118869	0.284748	0.875387
	C887	C	0.130586	0.283870	0.872622
	C888	C	0.136905	0.373514	0.872283
	C889	C	0.131195	0.464281	0.875006
	C890	C	0.119460	0.465057	0.877839
	C891	C	0.149442	0.372812	0.866015
	H892	H	0.134873	0.213165	0.870749
	H893	H	0.114096	0.215069	0.875500
	H894	H	0.135908	0.284182	0.958633
	H895	H	0.115151	0.286119	0.953880
	H896	H	0.083510	0.124320	0.869522
	H897	H	0.083431	0.374097	0.964114
	H898	H	0.000034	0.373457	0.953072
	H899	H	0.166568	0.124795	0.880695
	H900	H	0.051518	0.212198	0.879838
	H901	H	0.030743	0.214487	0.874762
	H902	H	0.031704	0.285306	0.962703
	H903	H	0.052517	0.283389	0.957737
	H904	H	0.031824	0.535063	0.870591
	H905	H	0.052562	0.533178	0.875514
	H906	H	0.051431	-0.037259	0.953599
	H907	H	0.030727	-0.035259	0.958692
	H908	H	0.114027	-0.034430	0.958722
	H909	H	0.134822	-0.036916	0.963608
	H910	H	0.115176	0.535665	0.879959
	H911	H	0.135983	0.533846	0.875054
	Al912	Al	0.250004	-0.499514	0.083204
	Al913	Al	0.250049	-0.249715	0.083401
	Al914	Al	0.166690	-0.250366	0.000194
	Al915	Al	0.166693	-0.500446	0.000057
	O916	O	0.262137	-0.456394	0.113477
	O917	O	0.249995	-0.374508	0.060585
	O918	O	0.250075	-0.124372	0.106138
	O919	O	0.320782	-0.460067	0.137949
	O920	O	0.237435	-0.461082	0.112345
	O921	O	0.178721	-0.457139	0.136128
	O922	O	0.237955	-0.292768	0.114200
	O923	O	0.237492	-0.211220	0.054410
	O924	O	0.178751	-0.207133	0.030818
	O925	O	0.262554	-0.287936	0.112346
	O926	O	0.262138	-0.206325	0.052848
	O927	O	0.320763	-0.210305	0.028834
	O928	O	0.179213	-0.288870	0.137751
	O929	O	0.237917	-0.042975	0.052983
	O930	O	0.179222	-0.038782	0.028891
	O931	O	0.321275	-0.041924	0.030231
	O932	O	0.262593	-0.037940	0.054706
	O933	O	0.321256	-0.291547	0.136212
	O934	O	0.166606	-0.125268	0.144032
	O935	O	0.333336	-0.373541	0.022585
	C936	C	0.297835	-0.284158	0.125368
	C937	C	0.303566	-0.374886	0.128155
	C938	C	0.297269	-0.464370	0.127814
	C939	C	0.285547	-0.463293	0.124895
	C940	C	0.279807	-0.372689	0.122049
	C941	C	0.286108	-0.283092	0.122361
	C942	C	0.267280	-0.372314	0.115640
	C943	C	0.316093	-0.375659	0.134343
	C944	C	0.232761	-0.376635	0.115943
	C945	C	0.220214	-0.375909	0.122120
	C946	C	0.214465	-0.285384	0.125076
	C947	C	0.202736	-0.284215	0.127985
	C948	C	0.196440	-0.373805	0.128076
	C949	C	0.202178	-0.464436	0.125194
	C950	C	0.213922	-0.465547	0.122286
	C951	C	0.183900	-0.373116	0.134178
	C952	C	0.232792	-0.126922	0.051013
	C953	C	0.220213	-0.126166	0.044900
	C954	C	0.214498	-0.035491	0.041831
	C955	C	0.202779	-0.034240	0.038863
	C956	C	0.196455	-0.123780	0.038777
	C957	C	0.202162	-0.214441	0.041705
	C958	C	0.213886	-0.215744	0.044650
	C959	C	0.183900	-0.123011	0.032506
	C960	C	0.267291	-0.122200	0.051046
	C961	C	0.279816	-0.122598	0.044805
	C962	C	0.285531	-0.213315	0.041851
	C963	C	0.297241	-0.214276	0.038927
	C964	C	0.303560	-0.124884	0.038677
	C965	C	0.297838	-0.034112	0.041374
	C966	C	0.286126	-0.033031	0.044294
	C967	C	0.316112	-0.125840	0.032250
	H968	H	0.301582	-0.284713	0.036897
	H969	H	0.280778	-0.283295	0.041995
	H970	H	0.302591	-0.214397	0.125510
	H971	H	0.281819	-0.212508	0.120384
	H972	H	0.249905	-0.374288	0.036136
	H973	H	0.250266	-0.125035	0.130692
	H974	H	0.166513	-0.125388	0.119475
	H975	H	0.333406	-0.372840	0.046945
	H976	H	0.218169	-0.286584	0.046808
	H977	H	0.197367	-0.284153	0.041680
	H978	H	0.198458	-0.213396	0.130151
	H979	H	0.219176	-0.215536	0.125051
	H980	H	0.198504	0.036663	0.036685
	H981	H	0.219280	0.034241	0.041808
	H982	H	0.218228	-0.536186	0.120134
	H983	H	0.197423	-0.534396	0.125126
	H984	H	0.280772	-0.532945	0.124827
	H985	H	0.301560	-0.535117	0.129843
	H986	H	0.281808	0.037527	0.046353
	H987	H	0.302579	0.035834	0.041166
	Al988	Al	0.250027	0.000410	0.083609
	Al989	Al	0.250006	0.250691	0.083232
	Al990	Al	0.166653	0.249683	-0.000197
	Al991	Al	0.166690	-0.000438	-0.000208
	O992	O	0.262051	0.044020	0.114166
	O993	O	0.250036	0.125397	0.060554
	O994	O	0.249950	0.375855	0.106006
	O995	O	0.320789	0.040315	0.137754
	O996	O	0.237492	0.039138	0.112358
	O997	O	0.178779	0.042714	0.136001
	O998	O	0.237939	0.207712	0.113822
	O999	O	0.237421	0.289066	0.054517
	O1000	O	0.178769	0.292645	0.030442
	O1001	O	0.262548	0.212480	0.112141
	O1002	O	0.262113	0.293596	0.052872
	O1003	O	0.320829	0.290007	0.028850
	O1004	O	0.179315	0.211189	0.137974
	O1005	O	0.237905	0.457439	0.052644
	O1006	O	0.179189	0.461166	0.029010
	O1007	O	0.321267	0.458255	0.030526
	O1008	O	0.262525	0.462130	0.054154
	O1009	O	0.321195	0.208808	0.136328
	O1010	O	0.166629	0.374311	0.143976
	O1011	O	0.333353	0.126032	0.022524
	C1012	C	0.297792	0.216072	0.125340
	C1013	C	0.303541	0.125373	0.127965
	C1014	C	0.297239	0.035744	0.127571
	C1015	C	0.285513	0.036472	0.124640
	C1016	C	0.279769	0.127047	0.121919
	C1017	C	0.286057	0.216695	0.122413
	C1018	C	0.267223	0.127904	0.115743
	C1019	C	0.316086	0.124490	0.134270
	C1020	C	0.232766	0.123493	0.115726
	C1021	C	0.220244	0.124107	0.121885
	C1022	C	0.214501	0.214677	0.124789
	C1023	C	0.202780	0.215651	0.127785
	C1024	C	0.196497	0.125896	0.128016
	C1025	C	0.202229	0.035304	0.125178
	C1026	C	0.213953	0.034365	0.122270
	C1027	C	0.183973	0.126767	0.134243
	C1028	C	0.232728	0.373574	0.051001
	C1029	C	0.220191	0.374328	0.044897
	C1030	C	0.214470	0.465126	0.041956
	C1031	C	0.202722	0.466141	0.039140
	C1032	C	0.196431	0.376354	0.038922
	C1033	C	0.202166	0.285596	0.041749
	C1034	C	0.213892	0.284647	0.044613
	C1035	C	0.183893	0.376673	0.032488
	C1036	C	0.267256	0.377766	0.050961
	C1037	C	0.279820	0.376974	0.044853
	C1038	C	0.285553	0.286420	0.042079
	C1039	C	0.297287	0.285262	0.039126
	C1040	C	0.303587	0.374824	0.038730
	C1041	C	0.297845	0.465529	0.041499
	C1042	C	0.286121	0.466506	0.044483
	C1043	C	0.316102	0.374392	0.032449
	H1044	H	0.301568	0.214429	0.036851
	H1045	H	0.280786	0.216429	0.042046
	H1046	H	0.302517	0.286137	0.125728
	H1047	H	0.281728	0.287129	0.120617
	H1048	H	0.250038	0.124807	0.036010
	H1049	H	0.249740	0.375537	0.130458
	H1050	H	0.166510	0.374827	0.119599
	H1051	H	0.333477	0.125697	0.046888
	H1052	H	0.218189	0.214151	0.046759
	H1053	H	0.197424	0.215567	0.041703
	H1054	H	0.198471	0.286304	0.129980
	H1055	H	0.219243	0.284473	0.124787
	H1056	H	0.198397	0.536658	0.037057
	H1057	H	0.219227	0.535110	0.042066
	H1058	H	0.218248	-0.036123	0.120305
	H1059	H	0.197474	-0.034718	0.125415
	H1060	H	0.280798	-0.033597	0.124558
	H1061	H	0.301577	-0.034771	0.129622
	H1062	H	0.281821	0.537212	0.046298
	H1063	H	0.302602	0.535361	0.041152
	Al1064	Al	0.249992	-0.499817	0.250092
	Al1065	Al	0.250019	-0.249612	0.250111
	Al1066	Al	0.166683	-0.250188	0.166628
	Al1067	Al	0.166631	-0.500361	0.166713
	O1068	O	0.262011	-0.456288	0.280748
	O1069	O	0.249960	-0.374460	0.227362
	O1070	O	0.250033	-0.124335	0.272736
	O1071	O	0.320806	-0.460009	0.304132
	O1072	O	0.237460	-0.461150	0.278941
	O1073	O	0.178713	-0.456532	0.302766
	O1074	O	0.237939	-0.292712	0.280702
	O1075	O	0.237398	-0.211458	0.221359
	O1076	O	0.178731	-0.206869	0.197180
	O1077	O	0.262520	-0.287908	0.279111
	O1078	O	0.262056	-0.206320	0.219274
	O1079	O	0.320805	-0.209675	0.195624
	O1080	O	0.179269	-0.287991	0.304769
	O1081	O	0.237913	-0.042927	0.219205
	O1082	O	0.179219	-0.038567	0.195699
	O1083	O	0.321236	-0.041261	0.197157
	O1084	O	0.262530	-0.037850	0.220897
	O1085	O	0.321200	-0.291490	0.302932
	O1086	O	0.166677	-0.125262	0.310753
	O1087	O	0.333390	-0.373620	0.189379
	C1088	C	0.297759	-0.284282	0.292229
	C1089	C	0.303519	-0.374912	0.294732
	C1090	C	0.297228	-0.464810	0.294172
	C1091	C	0.285495	-0.463902	0.291356
	C1092	C	0.279744	-0.373233	0.288888
	C1093	C	0.286026	-0.283420	0.289458
	C1094	C	0.267179	-0.372433	0.282680
	C1095	C	0.316081	-0.375648	0.300848
	C1096	C	0.232784	-0.376850	0.282503
	C1097	C	0.220227	-0.376396	0.288666
	C1098	C	0.214494	-0.285780	0.291512
	C1099	C	0.202784	-0.284370	0.294491
	C1100	C	0.196461	-0.373726	0.294810
	C1101	C	0.202178	-0.464580	0.291918
	C1102	C	0.213902	-0.466004	0.288937
	C1103	C	0.183912	-0.372470	0.301012
	C1104	C	0.232741	-0.127014	0.217579
	C1105	C	0.220195	-0.126063	0.211297
	C1106	C	0.214480	-0.035270	0.208546
	C1107	C	0.202746	-0.034045	0.205742
	C1108	C	0.196438	-0.123698	0.205543
	C1109	C	0.202148	-0.214426	0.208417
	C1110	C	0.213890	-0.215531	0.211251
	C1111	C	0.183904	-0.122918	0.199253
	C1112	C	0.267230	-0.122348	0.217456
	C1113	C	0.279781	-0.122866	0.211346
	C1114	C	0.285542	-0.213414	0.208733
	C1115	C	0.297272	-0.214264	0.205818
	C1116	C	0.303562	-0.124619	0.205328
	C1117	C	0.297810	-0.034028	0.208093
	C1118	C	0.286068	-0.033094	0.211088
	C1119	C	0.316109	-0.125250	0.199171
	H1120	H	0.301560	-0.285051	0.203707
	H1121	H	0.280793	-0.283296	0.208714
	H1122	H	0.302514	-0.214558	0.292587
	H1123	H	0.281699	-0.212758	0.287694
	H1124	H	0.249859	-0.374637	0.203030
	H1125	H	0.250085	-0.123521	0.297192
	H1126	H	0.166842	-0.126039	0.286124
	H1127	H	0.333732	-0.373502	0.213783
	H1128	H	0.218170	-0.286238	0.213262
	H1129	H	0.197418	-0.284213	0.208302
	H1130	H	0.198520	-0.213418	0.296604
	H1131	H	0.219261	-0.216053	0.291495
	H1132	H	0.198466	0.036579	0.203507
	H1133	H	0.219264	0.034462	0.208479
	H1134	H	0.218220	-0.536395	0.286917
	H1135	H	0.197389	-0.534181	0.292055
	H1136	H	0.280728	-0.533760	0.291021
	H1137	H	0.301559	-0.535418	0.295863
	H1138	H	0.281771	0.037448	0.212903
	H1139	H	0.302551	0.035988	0.207730
	Al1140	Al	0.250002	0.000351	0.249933
	Al1141	Al	0.250006	0.250274	0.249851
	Al1142	Al	0.166655	0.249688	0.166776
	Al1143	Al	0.166688	-0.000153	0.166607
	O1144	O	0.262052	0.044246	0.280620
	O1145	O	0.249944	0.125437	0.227184
	O1146	O	0.250033	0.375383	0.272739
	O1147	O	0.320768	0.039710	0.304858
	O1148	O	0.237454	0.038772	0.279102
	O1149	O	0.178819	0.042939	0.302968
	O1150	O	0.237941	0.207065	0.280607
	O1151	O	0.237403	0.288313	0.221177
	O1152	O	0.178701	0.292662	0.197465
	O1153	O	0.262602	0.212275	0.278786
	O1154	O	0.262127	0.293336	0.219286
	O1155	O	0.320843	0.289612	0.195929
	O1156	O	0.179226	0.211031	0.304409
	O1157	O	0.237893	0.456880	0.219573
	O1158	O	0.179159	0.461204	0.195689
	O1159	O	0.321318	0.458138	0.197427
	O1160	O	0.262562	0.461828	0.221046
	O1161	O	0.321240	0.208066	0.303160
	O1162	O	0.166655	0.374704	0.310611
	O1163	O	0.333337	0.126561	0.189374
	C1164	C	0.297844	0.215369	0.292302
	C1165	C	0.303563	0.124837	0.295001
	C1166	C	0.297263	0.035368	0.294528
	C1167	C	0.285534	0.036472	0.291569
	C1168	C	0.279807	0.126991	0.288884
	C1169	C	0.286129	0.216475	0.289368
	C1170	C	0.267275	0.127886	0.282502
	C1171	C	0.316084	0.124094	0.301279
	C1172	C	0.232767	0.123174	0.282603
	C1173	C	0.220234	0.123956	0.288849
	C1174	C	0.214533	0.214520	0.291750
	C1175	C	0.202800	0.215830	0.294647
	C1176	C	0.196489	0.126372	0.294832
	C1177	C	0.202199	0.035793	0.292098
	C1178	C	0.213929	0.034563	0.289227
	C1179	C	0.183942	0.127004	0.301038
	C1180	C	0.232726	0.372929	0.217597
	C1181	C	0.220173	0.373510	0.211413
	C1182	C	0.214462	0.464447	0.208532
	C1183	C	0.202743	0.465675	0.205587
	C1184	C	0.196405	0.375958	0.205307
	C1185	C	0.202124	0.285169	0.208100
	C1186	C	0.213847	0.284003	0.211073
	C1187	C	0.183845	0.376580	0.199265
	C1188	C	0.267272	0.377624	0.217451
	C1189	C	0.279821	0.377056	0.211189
	C1190	C	0.285549	0.286452	0.208639
	C1191	C	0.297282	0.285506	0.205777
	C1192	C	0.303591	0.375079	0.205334
	C1193	C	0.297873	0.465788	0.207971
	C1194	C	0.286133	0.466701	0.210828
	C1195	C	0.316149	0.374154	0.199350
	H1196	H	0.301582	0.214706	0.203839
	H1197	H	0.280812	0.216521	0.208789
	H1198	H	0.302565	0.285240	0.292583
	H1199	H	0.281836	0.287186	0.287461
	H1200	H	0.249843	0.125282	0.202689
	H1201	H	0.250161	0.375695	0.297242
	H1202	H	0.166581	0.374725	0.286128
	H1203	H	0.333192	0.126912	0.213842
	H1204	H	0.218125	0.213418	0.213060
	H1205	H	0.197352	0.215501	0.207952
	H1206	H	0.198537	0.286559	0.296646
	H1207	H	0.219290	0.284326	0.291616
	H1208	H	0.198426	0.536443	0.203405
	H1209	H	0.219261	0.533941	0.208566
	H1210	H	0.218183	-0.036117	0.287144
	H1211	H	0.197434	-0.034004	0.292106
	H1212	H	0.280778	-0.033537	0.291421
	H1213	H	0.301556	-0.035377	0.296545
	H1214	H	0.281822	0.537318	0.212636
	H1215	H	0.302636	0.535670	0.207637
	Al1216	Al	0.249965	-0.499485	0.416666
	Al1217	Al	0.249991	-0.249724	0.416645
	Al1218	Al	0.166605	-0.250113	0.333559
	Al1219	Al	0.166684	-0.500176	0.333389
	O1220	O	0.261993	-0.455891	0.447462
	O1221	O	0.249957	-0.374593	0.393854
	O1222	O	0.249960	-0.124577	0.439036
	O1223	O	0.320720	-0.460554	0.470971
	O1224	O	0.237388	-0.460958	0.445459
	O1225	O	0.178702	-0.456680	0.469159
	O1226	O	0.237851	-0.292596	0.446939
	O1227	O	0.237446	-0.211121	0.387720
	O1228	O	0.178686	-0.206905	0.364221
	O1229	O	0.262534	-0.287592	0.445618
	O1230	O	0.262134	-0.207027	0.386155
	O1231	O	0.320864	-0.210673	0.362611
	O1232	O	0.179219	-0.288397	0.471187
	O1233	O	0.237888	-0.042611	0.385890
	O1234	O	0.179217	-0.038412	0.362281
	O1235	O	0.321292	-0.042347	0.364407
	O1236	O	0.262561	-0.038710	0.387444
	O1237	O	0.321273	-0.292165	0.469478
	O1238	O	0.166632	-0.124897	0.477328
	O1239	O	0.333341	-0.374063	0.356042
	C1240	C	0.297749	-0.284591	0.458974
	C1241	C	0.303494	-0.375186	0.461689
	C1242	C	0.297176	-0.464837	0.461258
	C1243	C	0.285430	-0.463708	0.458538
	C1244	C	0.279712	-0.373006	0.455825
	C1245	C	0.286018	-0.283460	0.456214
	C1246	C	0.267193	-0.372108	0.449401
	C1247	C	0.316053	-0.375976	0.467680
	C1248	C	0.232700	-0.376621	0.448842
	C1249	C	0.220173	-0.375608	0.455217
	C1250	C	0.214464	-0.284937	0.458152
	C1251	C	0.202745	-0.283873	0.461163
	C1252	C	0.196437	-0.373531	0.461437
	C1253	C	0.202145	-0.464174	0.458509
	C1254	C	0.213867	-0.465137	0.455585
	C1255	C	0.183886	-0.372833	0.467481
	C1256	C	0.232739	-0.126821	0.384088
	C1257	C	0.220194	-0.126377	0.378037
	C1258	C	0.214486	-0.035615	0.375284
	C1259	C	0.202756	-0.034384	0.372487
	C1260	C	0.196434	-0.123963	0.372041
	C1261	C	0.202128	-0.214622	0.374877
	C1262	C	0.213861	-0.215858	0.377678
	C1263	C	0.183883	-0.122929	0.365982
	C1264	C	0.267279	-0.123005	0.384164
	C1265	C	0.279838	-0.123509	0.378195
	C1266	C	0.285578	-0.214165	0.375619
	C1267	C	0.297301	-0.215138	0.372857
	C1268	C	0.303613	-0.125657	0.372393
	C1269	C	0.297870	-0.034882	0.374892
	C1270	C	0.286147	-0.033892	0.377626
	C1271	C	0.316161	-0.126426	0.366087
	H1272	H	0.301621	-0.285765	0.371187
	H1273	H	0.280820	-0.284035	0.376109
	H1274	H	0.302529	-0.214821	0.459099
	H1275	H	0.281757	-0.212640	0.454255
	H1276	H	0.249820	-0.375142	0.369397
	H1277	H	0.249861	-0.123678	0.463456
	H1278	H	0.166542	-0.124623	0.452791
	H1279	H	0.333284	-0.374263	0.380440
	H1280	H	0.218146	-0.286694	0.379454
	H1281	H	0.197357	-0.284616	0.374674
	H1282	H	0.198466	-0.213090	0.463320
	H1283	H	0.219243	-0.215361	0.458064
	H1284	H	0.198483	0.036475	0.370420
	H1285	H	0.219242	0.033906	0.375268
	H1286	H	0.218164	-0.535842	0.453597
	H1287	H	0.197348	-0.533839	0.458579
	H1288	H	0.280653	-0.533360	0.458240
	H1289	H	0.301471	-0.535642	0.463002
	H1290	H	0.281841	0.036683	0.379529
	H1291	H	0.302633	0.035001	0.374785
	Al1292	Al	0.250035	0.000372	0.416239
	Al1293	Al	0.250006	0.250534	0.416855
	Al1294	Al	0.166692	0.249648	0.333181
	Al1295	Al	0.166696	-0.000528	0.333327
	O1296	O	0.262059	0.043670	0.447019
	O1297	O	0.250008	0.125648	0.393807
	O1298	O	0.249972	0.375819	0.439503
	O1299	O	0.320756	0.039543	0.470971
	O1300	O	0.237469	0.038390	0.445287
	O1301	O	0.178782	0.042894	0.469281
	O1302	O	0.237963	0.206843	0.447337
	O1303	O	0.237442	0.289227	0.387948
	O1304	O	0.178780	0.293041	0.363829
	O1305	O	0.262507	0.211938	0.445973
	O1306	O	0.262096	0.293703	0.386450
	O1307	O	0.320772	0.290006	0.362429
	O1308	O	0.179279	0.211416	0.471225
	O1309	O	0.237909	0.457645	0.386242
	O1310	O	0.179204	0.461428	0.362283
	O1311	O	0.321228	0.458462	0.363914
	O1312	O	0.262546	0.462237	0.387922
	O1313	O	0.321246	0.207873	0.469629
	O1314	O	0.166680	0.374560	0.477183
	O1315	O	0.333358	0.126234	0.356320
	C1316	C	0.297771	0.215394	0.458817
	C1317	C	0.303526	0.124706	0.461413
	C1318	C	0.297245	0.035119	0.460702
	C1319	C	0.285516	0.035992	0.457879
	C1320	C	0.279750	0.126563	0.455518
	C1321	C	0.286039	0.216252	0.456000
	C1322	C	0.267216	0.127445	0.449189
	C1323	C	0.316065	0.124009	0.467633
	C1324	C	0.232812	0.122709	0.449071
	C1325	C	0.220271	0.123930	0.455398
	C1326	C	0.214569	0.214815	0.458228
	C1327	C	0.202832	0.215923	0.461030
	C1328	C	0.196530	0.126325	0.461446
	C1329	C	0.202251	0.035475	0.458524
	C1330	C	0.213980	0.034408	0.455697
	C1331	C	0.183980	0.126894	0.467629
	C1332	C	0.232746	0.373743	0.384439
	C1333	C	0.220211	0.374470	0.378231
	C1334	C	0.214472	0.465055	0.375328
	C1335	C	0.202748	0.466119	0.372403
	C1336	C	0.196451	0.376526	0.372099
	C1337	C	0.202198	0.285899	0.374871
	C1338	C	0.213911	0.284836	0.377831
	C1339	C	0.183927	0.377056	0.365734
	C1340	C	0.267260	0.377912	0.384505
	C1341	C	0.279794	0.377189	0.378356
	C1342	C	0.285548	0.286509	0.375714
	C1343	C	0.297265	0.285496	0.372744
	C1344	C	0.303539	0.375246	0.372104
	C1345	C	0.297801	0.466012	0.374932
	C1346	C	0.286072	0.466971	0.377846
	C1347	C	0.316087	0.374549	0.365926
	H1348	H	0.301577	0.215069	0.370851
	H1349	H	0.280797	0.216834	0.375825
	H1350	H	0.302501	0.285295	0.459018
	H1351	H	0.281680	0.286802	0.454036
	H1352	H	0.249751	0.125455	0.369334
	H1353	H	0.249910	0.376561	0.463956
	H1354	H	0.166466	0.375404	0.452676
	H1355	H	0.333453	0.126260	0.380629
	H1356	H	0.218216	0.214373	0.379902
	H1357	H	0.197437	0.216137	0.374738
	H1358	H	0.198505	0.286577	0.462911
	H1359	H	0.219313	0.284860	0.458079
	H1360	H	0.198450	0.536704	0.370420
	H1361	H	0.219208	0.534730	0.375435
	H1362	H	0.218290	-0.036302	0.453496
	H1363	H	0.197513	-0.034509	0.458522
	H1364	H	0.280807	-0.034081	0.457591
	H1365	H	0.301548	-0.035529	0.462447
	H1366	H	0.281741	0.537600	0.379624
	H1367	H	0.302552	0.535600	0.374668
	Al1368	Al	0.249998	-0.499676	0.583294
	Al1369	Al	0.249988	-0.249552	0.583308
	Al1370	Al	0.166636	-0.250193	0.499897
	Al1371	Al	0.166697	-0.500301	0.499954
	O1372	O	0.262054	-0.456760	0.613776
	O1373	O	0.249980	-0.374629	0.560610
	O1374	O	0.249978	-0.124379	0.606067
	O1375	O	0.320779	-0.460138	0.637844
	O1376	O	0.237479	-0.461129	0.612320
	O1377	O	0.178781	-0.457021	0.636312
	O1378	O	0.237967	-0.292711	0.614170
	O1379	O	0.237448	-0.211082	0.554297
	O1380	O	0.178674	-0.206080	0.530706
	O1381	O	0.262509	-0.288390	0.612394
	O1382	O	0.262098	-0.206378	0.552935
	O1383	O	0.320846	-0.210066	0.529032
	O1384	O	0.179238	-0.288750	0.638024
	O1385	O	0.237879	-0.042664	0.552947
	O1386	O	0.179212	-0.038001	0.529074
	O1387	O	0.321230	-0.041674	0.530444
	O1388	O	0.262606	-0.037796	0.554479
	O1389	O	0.321230	-0.291851	0.636354
	O1390	O	0.166675	-0.125669	0.644051
	O1391	O	0.333343	-0.374079	0.522520
	C1392	C	0.297763	-0.284728	0.625517
	C1393	C	0.303539	-0.375202	0.627926
	C1394	C	0.297242	-0.464878	0.627382
	C1395	C	0.285519	-0.464129	0.624457
	C1396	C	0.279744	-0.373564	0.621843
	C1397	C	0.286035	-0.283848	0.622583
	C1398	C	0.267227	-0.372710	0.615729
	C1399	C	0.316071	-0.375946	0.634372
	C1400	C	0.232792	-0.376510	0.615898
	C1401	C	0.220260	-0.375928	0.622258
	C1402	C	0.214549	-0.285068	0.625326
	C1403	C	0.202806	-0.283922	0.628089
	C1404	C	0.196487	-0.373571	0.628175
	C1405	C	0.202219	-0.464241	0.625100
	C1406	C	0.213950	-0.465512	0.622351
	C1407	C	0.183934	-0.373135	0.634329
	C1408	C	0.232734	-0.126792	0.551017
	C1409	C	0.220188	-0.125998	0.544974
	C1410	C	0.214480	-0.035160	0.542002
	C1411	C	0.202760	-0.033948	0.539131
	C1412	C	0.196392	-0.123396	0.538925
	C1413	C	0.202083	-0.214166	0.541933
	C1414	C	0.213811	-0.215480	0.544842
	C1415	C	0.183853	-0.122348	0.532672
	C1416	C	0.267289	-0.122424	0.551061
	C1417	C	0.279832	-0.123373	0.544973
	C1418	C	0.285568	-0.214131	0.542358
	C1419	C	0.297312	-0.215148	0.539473
	C1420	C	0.303591	-0.125468	0.538970
	C1421	C	0.297851	-0.034752	0.541497
	C1422	C	0.286114	-0.033581	0.544360
	C1423	C	0.316124	-0.125811	0.532555
	H1424	H	0.301602	-0.285779	0.537639
	H1425	H	0.280825	-0.283813	0.542688
	H1426	H	0.302515	-0.214830	0.625838
	H1427	H	0.281697	-0.213257	0.620631
	H1428	H	0.249990	-0.374621	0.536114
	H1429	H	0.250031	-0.125363	0.630595
	H1430	H	0.166783	-0.125804	0.619625
	H1431	H	0.333319	-0.374379	0.547098
	H1432	H	0.218088	-0.286277	0.546816
	H1433	H	0.197287	-0.283706	0.541805
	H1434	H	0.198495	-0.213099	0.630457
	H1435	H	0.219301	-0.215435	0.625547
	H1436	H	0.198476	0.036885	0.536835
	H1437	H	0.219282	0.034621	0.541898
	H1438	H	0.218218	-0.536199	0.620261
	H1439	H	0.197464	-0.534106	0.625104
	H1440	H	0.280792	-0.534131	0.624030
	H1441	H	0.301575	-0.535411	0.629047
	H1442	H	0.281832	0.037231	0.546205
	H1443	H	0.302601	0.035391	0.541168
	Al1444	Al	0.249962	0.000487	0.583326
	Al1445	Al	0.249960	0.250142	0.583456
	Al1446	Al	0.166642	0.249650	0.499834
	Al1447	Al	0.166719	-0.000099	0.499917
	O1448	O	0.262058	0.043239	0.613749
	O1449	O	0.249994	0.125409	0.560619
	O1450	O	0.249972	0.375166	0.606109
	O1451	O	0.320721	0.039592	0.637736
	O1452	O	0.237413	0.039154	0.612329
	O1453	O	0.178794	0.042382	0.636340
	O1454	O	0.237870	0.207158	0.613900
	O1455	O	0.237434	0.288556	0.554323
	O1456	O	0.178731	0.292986	0.530571
	O1457	O	0.262473	0.211501	0.612581
	O1458	O	0.262106	0.293078	0.553066
	O1459	O	0.320859	0.289314	0.529091
	O1460	O	0.179119	0.210646	0.637645
	O1461	O	0.237922	0.456890	0.552836
	O1462	O	0.179223	0.461339	0.528764
	O1463	O	0.321255	0.457769	0.530338
	O1464	O	0.262562	0.461443	0.554406
	O1465	O	0.321218	0.208031	0.636032
	O1466	O	0.166705	0.374662	0.644060
	O1467	O	0.333362	0.126054	0.522652
	C1468	C	0.297754	0.215263	0.625568
	C1469	C	0.303493	0.124494	0.628284
	C1470	C	0.297210	0.034842	0.627656
	C1471	C	0.285484	0.036009	0.624775
	C1472	C	0.279738	0.126711	0.622310
	C1473	C	0.286038	0.216363	0.622725
	C1474	C	0.267193	0.127157	0.615960
	C1475	C	0.316033	0.124079	0.634216
	C1476	C	0.232700	0.123253	0.615921
	C1477	C	0.220184	0.124006	0.622254
	C1478	C	0.214459	0.214592	0.625293
	C1479	C	0.202726	0.215652	0.628057
	C1480	C	0.196424	0.126093	0.628121
	C1481	C	0.202151	0.035616	0.625260
	C1482	C	0.213886	0.034523	0.622442
	C1483	C	0.183881	0.126546	0.634374
	C1484	C	0.232741	0.373095	0.550918
	C1485	C	0.220181	0.373864	0.544931
	C1486	C	0.214470	0.464622	0.541921
	C1487	C	0.202741	0.465725	0.539058
	C1488	C	0.196427	0.376193	0.538826
	C1489	C	0.202148	0.285464	0.541698
	C1490	C	0.213870	0.284373	0.544594
	C1491	C	0.183899	0.376936	0.532423
	C1492	C	0.267243	0.377211	0.551073
	C1493	C	0.279793	0.376353	0.544717
	C1494	C	0.285504	0.285642	0.541931
	C1495	C	0.297229	0.284370	0.538979
	C1496	C	0.303568	0.373800	0.538698
	C1497	C	0.297834	0.464631	0.541297
	C1498	C	0.286121	0.465850	0.544200
	C1499	C	0.316125	0.373545	0.532455
	H1500	H	0.301537	0.213755	0.536823
	H1501	H	0.280728	0.215883	0.541992
	H1502	H	0.302495	0.285080	0.625751
	H1503	H	0.281724	0.286877	0.620771
	H1504	H	0.250030	0.125397	0.536187
	H1505	H	0.250156	0.374956	0.630573
	H1506	H	0.166768	0.373813	0.619673
	H1507	H	0.333264	0.126065	0.547190
	H1508	H	0.218180	0.213561	0.546688
	H1509	H	0.197397	0.215700	0.541638
	H1510	H	0.198431	0.286418	0.630015
	H1511	H	0.219217	0.284508	0.625163
	H1512	H	0.198447	0.536494	0.536925
	H1513	H	0.219238	0.534312	0.541777
	H1514	H	0.218162	-0.036165	0.620116
	H1515	H	0.197390	-0.034192	0.625025
	H1516	H	0.280716	-0.033738	0.624434
	H1517	H	0.301524	-0.035947	0.629374
	H1518	H	0.281813	0.536530	0.546015
	H1519	H	0.302595	0.534524	0.540924
	Al1520	Al	0.249978	-0.499165	0.749616
	Al1521	Al	0.250001	-0.249520	0.749693
	Al1522	Al	0.166664	-0.250250	0.666932
	Al1523	Al	0.166683	-0.500117	0.666776
	O1524	O	0.262022	-0.456227	0.780347
	O1525	O	0.249987	-0.374298	0.726920
	O1526	O	0.249987	-0.124718	0.772656
	O1527	O	0.320683	-0.460386	0.804597
	O1528	O	0.237410	-0.461431	0.778565
	O1529	O	0.178733	-0.456926	0.802936
	O1530	O	0.237893	-0.292958	0.780284
	O1531	O	0.237440	-0.210197	0.721147
	O1532	O	0.178722	-0.206707	0.697502
	O1533	O	0.262527	-0.287865	0.778718
	O1534	O	0.262067	-0.206126	0.719156
	O1535	O	0.320789	-0.209828	0.695669
	O1536	O	0.179243	-0.288424	0.804764
	O1537	O	0.237869	-0.041845	0.719377
	O1538	O	0.179182	-0.038444	0.695753
	O1539	O	0.321263	-0.041470	0.697311
	O1540	O	0.262551	-0.037584	0.721247
	O1541	O	0.321218	-0.292012	0.802746
	O1542	O	0.166680	-0.124726	0.810673
	O1543	O	0.333358	-0.373448	0.689581
	C1544	C	0.297770	-0.284105	0.792070
	C1545	C	0.303494	-0.374896	0.794685
	C1546	C	0.297216	-0.464613	0.794376
	C1547	C	0.285481	-0.463481	0.791544
	C1548	C	0.279738	-0.372939	0.788701
	C1549	C	0.286038	-0.283144	0.789223
	C1550	C	0.267194	-0.372226	0.782246
	C1551	C	0.316046	-0.375955	0.800911
	C1552	C	0.232732	-0.376844	0.782188
	C1553	C	0.220199	-0.376054	0.788594
	C1554	C	0.214521	-0.285109	0.791728
	C1555	C	0.202779	-0.283792	0.794741
	C1556	C	0.196462	-0.373422	0.794898
	C1557	C	0.202142	-0.464138	0.791810
	C1558	C	0.213869	-0.465443	0.788794
	C1559	C	0.183894	-0.372904	0.801069
	C1560	C	0.232728	-0.125862	0.717556
	C1561	C	0.220194	-0.125259	0.711424
	C1562	C	0.214463	-0.034532	0.708437
	C1563	C	0.202725	-0.033822	0.705600
	C1564	C	0.196427	-0.123477	0.705483
	C1565	C	0.202157	-0.214156	0.708509
	C1566	C	0.213896	-0.214871	0.711388
	C1567	C	0.183893	-0.122893	0.699213
	C1568	C	0.267234	-0.121901	0.717332
	C1569	C	0.279773	-0.122595	0.711189
	C1570	C	0.285514	-0.213184	0.708589
	C1571	C	0.297251	-0.214264	0.705771
	C1572	C	0.303537	-0.124461	0.705189
	C1573	C	0.297787	-0.033998	0.707911
	C1574	C	0.286059	-0.032850	0.710722
	C1575	C	0.316099	-0.125423	0.699107
	H1576	H	0.301570	-0.284986	0.704106
	H1577	H	0.280725	-0.282911	0.708866
	H1578	H	0.302490	-0.214362	0.792429
	H1579	H	0.281747	-0.212426	0.787340
	H1580	H	0.249965	-0.373778	0.702464
	H1581	H	0.250056	-0.124654	0.797086
	H1582	H	0.166605	-0.124884	0.786271
	H1583	H	0.333447	-0.373604	0.714027
	H1584	H	0.218204	-0.285511	0.713645
	H1585	H	0.197426	-0.283942	0.708623
	H1586	H	0.198495	-0.213126	0.797094
	H1587	H	0.219312	-0.215312	0.791844
	H1588	H	0.198427	0.036672	0.703392
	H1589	H	0.219195	0.035303	0.708413
	H1590	H	0.218125	-0.536429	0.786738
	H1591	H	0.197394	-0.533838	0.791919
	H1592	H	0.280720	-0.533319	0.791544
	H1593	H	0.301534	-0.535163	0.796459
	H1594	H	0.281809	0.037909	0.712699
	H1595	H	0.302508	0.035835	0.707793
	Al1596	Al	0.249935	0.000755	0.749998
	Al1597	Al	0.249998	0.250804	0.750051
	Al1598	Al	0.166638	0.249571	0.666838
	Al1599	Al	0.166656	-0.000493	0.666690
	O1600	O	0.262059	0.043862	0.780514
	O1601	O	0.249993	0.126009	0.727183
	O1602	O	0.250056	0.376025	0.772424
	O1603	O	0.320755	0.039285	0.804242
	O1604	O	0.237411	0.039211	0.778796
	O1605	O	0.178781	0.043120	0.802703
	O1606	O	0.238016	0.207866	0.780755
	O1607	O	0.237420	0.289276	0.721159
	O1608	O	0.178696	0.293107	0.697451
	O1609	O	0.262528	0.212071	0.779067
	O1610	O	0.262146	0.294105	0.719446
	O1611	O	0.320850	0.289909	0.695366
	O1612	O	0.179214	0.211478	0.804529
	O1613	O	0.237922	0.457573	0.719087
	O1614	O	0.179192	0.461528	0.695840
	O1615	O	0.321322	0.458061	0.697326
	O1616	O	0.262616	0.462424	0.720962
	O1617	O	0.321294	0.207654	0.802512
	O1618	O	0.166696	0.374645	0.810585
	O1619	O	0.333337	0.126721	0.689218
	C1620	C	0.297822	0.215479	0.792069
	C1621	C	0.303557	0.124814	0.794504
	C1622	C	0.297224	0.035430	0.794197
	C1623	C	0.285500	0.036585	0.791368
	C1624	C	0.279783	0.127217	0.788637
	C1625	C	0.286087	0.216787	0.789253
	C1626	C	0.267233	0.127689	0.782326
	C1627	C	0.316097	0.123615	0.800717
	C1628	C	0.232792	0.123856	0.782379
	C1629	C	0.220235	0.124856	0.788624
	C1630	C	0.214487	0.215581	0.791362
	C1631	C	0.202766	0.216583	0.794224
	C1632	C	0.196469	0.126696	0.794594
	C1633	C	0.202190	0.035874	0.791668
	C1634	C	0.213921	0.035002	0.788827
	C1635	C	0.183923	0.127188	0.800837
	C1636	C	0.232755	0.373623	0.717352
	C1637	C	0.220200	0.374588	0.711322
	C1638	C	0.214475	0.465261	0.708314
	C1639	C	0.202755	0.466080	0.705558
	C1640	C	0.196446	0.376418	0.705435
	C1641	C	0.202170	0.285802	0.708411
	C1642	C	0.213893	0.284948	0.711192
	C1643	C	0.183883	0.377214	0.699251
	C1644	C	0.267329	0.378037	0.717593
	C1645	C	0.279857	0.376902	0.711620
	C1646	C	0.285591	0.286149	0.709061
	C1647	C	0.297313	0.285273	0.706126
	C1648	C	0.303624	0.374855	0.705441
	C1649	C	0.297885	0.465649	0.708142
	C1650	C	0.286158	0.466517	0.711075
	C1651	C	0.316148	0.374161	0.699131
	H1652	H	0.301646	0.214601	0.704084
	H1653	H	0.280859	0.215899	0.709087
	H1654	H	0.302592	0.285251	0.792529
	H1655	H	0.281783	0.287449	0.787556
	H1656	H	0.249952	0.126683	0.702695
	H1657	H	0.250321	0.376978	0.797058
	H1658	H	0.166669	0.375019	0.786072
	H1659	H	0.333002	0.126853	0.713781
	H1660	H	0.218218	0.214502	0.713522
	H1661	H	0.197416	0.216065	0.708736
	H1662	H	0.198441	0.287336	0.796240
	H1663	H	0.219266	0.285526	0.791276
	H1664	H	0.198415	0.536608	0.703620
	H1665	H	0.219219	0.535193	0.708438
	H1666	H	0.218236	-0.035447	0.786814
	H1667	H	0.197443	-0.034043	0.791767
	H1668	H	0.280718	-0.033495	0.791205
	H1669	H	0.301498	-0.035234	0.796207
	H1670	H	0.281824	0.536799	0.712791
	H1671	H	0.302637	0.535404	0.707703
	Al1672	Al	0.249995	-0.499721	0.916448
	Al1673	Al	0.249984	-0.249643	0.916519
	Al1674	Al	0.166699	-0.249679	0.833469
	Al1675	Al	0.166675	-0.500293	0.833459
	O1676	O	0.261997	-0.456209	0.947133
	O1677	O	0.250021	-0.374579	0.893782
	O1678	O	0.250000	-0.124678	0.939283
	O1679	O	0.320752	-0.460277	0.970928
	O1680	O	0.237437	-0.461745	0.945423
	O1681	O	0.178851	-0.456999	0.969832
	O1682	O	0.237944	-0.293077	0.947188
	O1683	O	0.237406	-0.211201	0.887811
	O1684	O	0.178756	-0.206288	0.863935
	O1685	O	0.262512	-0.287918	0.945646
	O1686	O	0.262076	-0.206086	0.886104
	O1687	O	0.320844	-0.210134	0.862347
	O1688	O	0.179263	-0.288644	0.971276
	O1689	O	0.237987	-0.042781	0.885908
	O1690	O	0.179219	-0.037939	0.862189
	O1691	O	0.321255	-0.041839	0.863664
	O1692	O	0.262594	-0.037877	0.887907
	O1693	O	0.321172	-0.291821	0.969731
	O1694	O	0.166667	-0.125741	0.977253
	O1695	O	0.333406	-0.373988	0.856020
	C1696	C	0.297717	-0.284887	0.958639
	C1697	C	0.303471	-0.375398	0.961467
	C1698	C	0.297178	-0.465100	0.961053
	C1699	C	0.285448	-0.464133	0.958204
	C1700	C	0.279708	-0.373568	0.955471
	C1701	C	0.285988	-0.283814	0.955760
	C1702	C	0.267178	-0.372451	0.949065
	C1703	C	0.316020	-0.375885	0.967666
	C1704	C	0.232781	-0.377117	0.949018
	C1705	C	0.220242	-0.376223	0.955288
	C1706	C	0.214540	-0.285366	0.958119
	C1707	C	0.202826	-0.284293	0.961088
	C1708	C	0.196511	-0.373880	0.961480
	C1709	C	0.202197	-0.464850	0.958499
	C1710	C	0.213910	-0.465868	0.955521
	C1711	C	0.183980	-0.372930	0.967793
	C1712	C	0.232787	-0.126616	0.884116
	C1713	C	0.220238	-0.125730	0.878088
	C1714	C	0.214533	-0.034857	0.875275
	C1715	C	0.202807	-0.033588	0.872384
	C1716	C	0.196467	-0.122934	0.872106
	C1717	C	0.202182	-0.213779	0.875072
	C1718	C	0.213913	-0.215175	0.877922
	C1719	C	0.183923	-0.122341	0.865804
	C1720	C	0.267263	-0.122181	0.884267
	C1721	C	0.279815	-0.123154	0.878207
	C1722	C	0.285537	-0.213750	0.875388
	C1723	C	0.297258	-0.214712	0.872549
	C1724	C	0.303578	-0.125234	0.872108
	C1725	C	0.297853	-0.034610	0.874697
	C1726	C	0.286121	-0.033564	0.877612
	C1727	C	0.316118	-0.125813	0.865787
	H1728	H	0.301550	-0.285381	0.870708
	H1729	H	0.280813	-0.283800	0.875603
	H1730	H	0.302481	-0.215262	0.958810
	H1731	H	0.281699	-0.213013	0.953837
	H1732	H	0.249993	-0.374990	0.869233
	H1733	H	0.249970	-0.124911	0.963854
	H1734	H	0.166465	-0.125648	0.952948
	H1735	H	0.333608	-0.374047	0.880542
	H1736	H	0.218179	-0.285897	0.880007
	H1737	H	0.197398	-0.283395	0.875189
	H1738	H	0.198535	-0.213512	0.963206
	H1739	H	0.219302	-0.215851	0.958110
	H1740	H	0.198508	0.037212	0.870449
	H1741	H	0.219326	0.034801	0.875451
	H1742	H	0.218229	-0.536690	0.953551
	H1743	H	0.197424	-0.534615	0.958601
	H1744	H	0.280669	-0.533650	0.958162
	H1745	H	0.301460	-0.535875	0.963083
	H1746	H	0.281819	0.037131	0.879563
	H1747	H	0.302620	0.035235	0.874535
	Al1748	Al	0.250035	0.000727	0.916807
	Al1749	Al	0.249983	0.250027	0.916762
	Al1750	Al	0.166676	0.249969	0.833351
	Al1751	Al	0.166650	0.000522	0.833311
	O1752	O	0.262107	0.043840	0.947380
	O1753	O	0.250027	0.125555	0.894029
	O1754	O	0.249940	0.375442	0.939348
	O1755	O	0.320801	0.039805	0.970733
	O1756	O	0.237461	0.038684	0.945664
	O1757	O	0.178769	0.043048	0.969281
	O1758	O	0.237998	0.206901	0.947632
	O1759	O	0.237403	0.287958	0.887981
	O1760	O	0.178699	0.292689	0.863962
	O1761	O	0.262542	0.212091	0.945574
	O1762	O	0.262094	0.293237	0.886111
	O1763	O	0.320806	0.289452	0.862072
	O1764	O	0.179228	0.211628	0.970742
	O1765	O	0.237901	0.456374	0.886098
	O1766	O	0.179193	0.461173	0.862512
	O1767	O	0.321259	0.457913	0.863851
	O1768	O	0.262597	0.461824	0.887641
	O1769	O	0.321273	0.208180	0.969206
	O1770	O	0.166666	0.374952	0.977087
	O1771	O	0.333374	0.125902	0.855975
	C1772	C	0.297850	0.215926	0.958363
	C1773	C	0.303579	0.125112	0.961227
	C1774	C	0.297262	0.035597	0.960946
	C1775	C	0.285528	0.036512	0.958226
	C1776	C	0.279803	0.127270	0.955403
	C1777	C	0.286115	0.216890	0.955704
	C1778	C	0.267252	0.127859	0.949241
	C1779	C	0.316116	0.124188	0.967289
	C1780	C	0.232810	0.123104	0.949451
	C1781	C	0.220263	0.123840	0.955717
	C1782	C	0.214539	0.214530	0.958630
	C1783	C	0.202817	0.215896	0.961443
	C1784	C	0.196502	0.126317	0.961554
	C1785	C	0.202232	0.035632	0.958659
	C1786	C	0.213956	0.034347	0.955860
	C1787	C	0.183930	0.127031	0.967546
	C1788	C	0.232720	0.372409	0.884334
	C1789	C	0.220195	0.373287	0.878077
	C1790	C	0.214472	0.463938	0.875315
	C1791	C	0.202745	0.465289	0.872443
	C1792	C	0.196420	0.375793	0.872164
	C1793	C	0.202132	0.285130	0.875016
	C1794	C	0.213867	0.283813	0.877943
	C1795	C	0.183892	0.376687	0.865868
	C1796	C	0.267265	0.377131	0.884255
	C1797	C	0.279816	0.376432	0.878057
	C1798	C	0.285530	0.285567	0.875311
	C1799	C	0.297265	0.284535	0.872235
	C1800	C	0.303569	0.374173	0.871838
	C1801	C	0.297845	0.464843	0.874668
	C1802	C	0.286121	0.465862	0.877602
	C1803	C	0.316114	0.373838	0.865661
	H1804	H	0.301566	0.213930	0.870161
	H1805	H	0.280773	0.215809	0.875501
	H1806	H	0.302573	0.285841	0.958278
	H1807	H	0.281781	0.287390	0.953753
	H1808	H	0.250037	0.125361	0.869610
	H1809	H	0.249568	0.376147	0.963827
	H1810	H	0.166737	0.374747	0.952596
	H1811	H	0.333389	0.125965	0.880375
	H1812	H	0.218136	0.213182	0.880164
	H1813	H	0.197369	0.215496	0.874948
	H1814	H	0.198516	0.286625	0.963350
	H1815	H	0.219290	0.284168	0.958387
	H1816	H	0.198472	0.536046	0.870450
	H1817	H	0.219232	0.533860	0.875468
	H1818	H	0.218246	-0.036177	0.953469
	H1819	H	0.197442	-0.034199	0.958358
	H1820	H	0.280788	-0.033575	0.958186
	H1821	H	0.301601	-0.035098	0.962854
	H1822	H	0.281825	0.536648	0.879581
	H1823	H	0.302586	0.534836	0.874430
	Al1824	Al	0.416638	-0.498339	0.083220
	Al1825	Al	0.416649	-0.248639	0.083216
	Al1826	Al	0.333300	-0.248776	-0.000212
	Al1827	Al	0.333306	-0.498631	-0.000134
	O1828	O	0.428705	-0.455191	0.113878
	O1829	O	0.416663	-0.373685	0.060543
	O1830	O	0.416629	-0.123699	0.105919
	O1831	O	0.487386	-0.460288	0.137667
	O1832	O	0.404100	-0.460361	0.112127
	O1833	O	0.345381	-0.455347	0.135962
	O1834	O	0.404632	-0.291906	0.113944
	O1835	O	0.404052	-0.210217	0.054718
	O1836	O	0.345386	-0.205690	0.030371
	O1837	O	0.429239	-0.286839	0.111827
	O1838	O	0.428689	-0.205499	0.052389
	O1839	O	0.487437	-0.210932	0.028830
	O1840	O	0.345870	-0.286869	0.137809
	O1841	O	0.404520	-0.041905	0.052840
	O1842	O	0.345871	-0.037376	0.028679
	O1843	O	0.487966	-0.042400	0.030920
	O1844	O	0.429224	-0.037000	0.054396
	O1845	O	0.487930	-0.291902	0.136026
	O1846	O	0.333348	-0.123411	0.143905
	O1847	O	0.500000	-0.374120	0.022324
	C1848	C	0.464516	-0.284022	0.125061
	C1849	C	0.470197	-0.374927	0.127969
	C1850	C	0.463862	-0.464498	0.127606
	C1851	C	0.452134	-0.463097	0.124787
	C1852	C	0.446437	-0.372209	0.121925
	C1853	C	0.452790	-0.282774	0.122114
	C1854	C	0.433900	-0.371314	0.115532
	C1855	C	0.482737	-0.375714	0.134185
	C1856	C	0.399443	-0.375749	0.115742
	C1857	C	0.386913	-0.374823	0.122019
	C1858	C	0.381213	-0.283942	0.124923
	C1859	C	0.369465	-0.282862	0.127774
	C1860	C	0.363134	-0.372315	0.127975
	C1861	C	0.368859	-0.463029	0.125257
	C1862	C	0.380592	-0.464195	0.122437
	C1863	C	0.350575	-0.371334	0.134225
	C1864	C	0.399355	-0.126011	0.051075
	C1865	C	0.386824	-0.125144	0.044913
	C1866	C	0.381126	-0.034379	0.042125
	C1867	C	0.369408	-0.033275	0.039140
	C1868	C	0.363082	-0.122895	0.038620
	C1869	C	0.368777	-0.213804	0.041389
	C1870	C	0.380517	-0.214848	0.044300
	C1871	C	0.350553	-0.121730	0.032266
	C1872	C	0.433901	-0.121522	0.050753
	C1873	C	0.446437	-0.122552	0.044513
	C1874	C	0.452116	-0.213354	0.041550
	C1875	C	0.463843	-0.214717	0.038593
	C1876	C	0.470213	-0.125294	0.038452
	C1877	C	0.464533	-0.034476	0.041450
	C1878	C	0.452811	-0.033161	0.044389
	C1879	C	0.482748	-0.126277	0.032308
	H1880	H	0.468130	-0.285424	0.036524
	H1881	H	0.447306	-0.282907	0.041624
	H1882	H	0.469291	-0.214304	0.125181
	H1883	H	0.448503	-0.211953	0.120139
	H1884	H	0.416734	-0.373917	0.036133
	H1885	H	0.416595	-0.123273	0.130348
	H1886	H	0.333554	-0.123264	0.119541
	H1887	H	0.499924	-0.373883	0.046775
	H1888	H	0.384792	-0.285781	0.046452
	H1889	H	0.363982	-0.283420	0.041428
	H1890	H	0.365193	-0.212089	0.129915
	H1891	H	0.385981	-0.214505	0.124948
	H1892	H	0.365130	0.037662	0.037425
	H1893	H	0.385882	0.035404	0.042546
	H1894	H	0.384895	-0.535236	0.120629
	H1895	H	0.364107	-0.532738	0.125613
	H1896	H	0.447354	-0.532747	0.124802
	H1897	H	0.468150	-0.535082	0.129800
	H1898	H	0.448554	0.037730	0.046617
	H1899	H	0.469317	0.035111	0.041466
	Al1900	Al	0.416664	0.001431	0.083194
	Al1901	Al	0.416634	0.251369	0.083376
	Al1902	Al	0.333368	0.251173	-0.000065
	Al1903	Al	0.333304	0.001228	-0.000325
	O1904	O	0.428716	0.044842	0.113811
	O1905	O	0.416669	0.126608	0.060673
	O1906	O	0.416684	0.376819	0.106082
	O1907	O	0.487414	0.039504	0.137764
	O1908	O	0.404083	0.039757	0.111995
	O1909	O	0.345458	0.044197	0.136422
	O1910	O	0.404640	0.208115	0.114071
	O1911	O	0.404048	0.289741	0.054527
	O1912	O	0.345363	0.294672	0.030572
	O1913	O	0.429262	0.213102	0.111932
	O1914	O	0.428710	0.294871	0.052624
	O1915	O	0.487414	0.289651	0.028481
	O1916	O	0.345899	0.212619	0.137595
	O1917	O	0.404619	0.457882	0.052590
	O1918	O	0.345881	0.463074	0.028677
	O1919	O	0.487944	0.458001	0.030290
	O1920	O	0.429297	0.463194	0.054646
	O1921	O	0.487935	0.207630	0.135702
	O1922	O	0.333298	0.376385	0.143985
	O1923	O	0.500013	0.125923	0.022664
	C1924	C	0.464531	0.215163	0.124913
	C1925	C	0.470223	0.124437	0.127813
	C1926	C	0.463876	0.035138	0.127537
	C1927	C	0.452143	0.036639	0.124643
	C1928	C	0.446455	0.127434	0.121749
	C1929	C	0.452802	0.216712	0.122013
	C1930	C	0.433917	0.128501	0.115550
	C1931	C	0.482750	0.123785	0.134016
	C1932	C	0.399449	0.124161	0.115860
	C1933	C	0.386894	0.125023	0.122031
	C1934	C	0.381172	0.215856	0.124815
	C1935	C	0.369459	0.217150	0.127716
	C1936	C	0.363152	0.127480	0.128168
	C1937	C	0.368868	0.036593	0.125366
	C1938	C	0.380593	0.035345	0.122473
	C1939	C	0.350594	0.128206	0.134279
	C1940	C	0.399402	0.374168	0.050842
	C1941	C	0.386853	0.375073	0.044634
	C1942	C	0.381152	0.466033	0.041906
	C1943	C	0.369417	0.467308	0.039012
	C1944	C	0.363092	0.377840	0.038632
	C1945	C	0.368798	0.286997	0.041362
	C1946	C	0.380521	0.285545	0.044226
	C1947	C	0.350558	0.378621	0.032353
	C1948	C	0.433917	0.378588	0.050915
	C1949	C	0.446468	0.377383	0.044649
	C1950	C	0.452177	0.286528	0.041731
	C1951	C	0.463898	0.285626	0.038821
	C1952	C	0.470219	0.375237	0.038346
	C1953	C	0.464526	0.466090	0.041429
	C1954	C	0.452802	0.466981	0.044360
	C1955	C	0.482759	0.374136	0.032087
	H1956	H	0.468191	0.214926	0.036708
	H1957	H	0.447405	0.216839	0.041826
	H1958	H	0.469319	0.284652	0.124907
	H1959	H	0.448567	0.287650	0.119845
	H1960	H	0.416701	0.126856	0.036176
	H1961	H	0.416803	0.376391	0.130508
	H1962	H	0.333212	0.376547	0.119384
	H1963	H	0.500135	0.125611	0.047178
	H1964	H	0.384812	0.214699	0.046250
	H1965	H	0.364069	0.216800	0.041241
	H1966	H	0.365161	0.287824	0.129701
	H1967	H	0.385959	0.285677	0.124707
	H1968	H	0.365127	0.538195	0.037037
	H1969	H	0.385912	0.535836	0.042057
	H1970	H	0.384898	-0.035254	0.120547
	H1971	H	0.364112	-0.033091	0.125457
	H1972	H	0.447339	-0.032786	0.124522
	H1973	H	0.468119	-0.035662	0.129562
	H1974	H	0.448486	0.537541	0.046496
	H1975	H	0.469293	0.535778	0.041354
	Al1976	Al	0.416690	-0.498086	0.250054
	Al1977	Al	0.416676	-0.248075	0.249767
	Al1978	Al	0.333303	-0.248581	0.166601
	Al1979	Al	0.333356	-0.498675	0.166653
	O1980	O	0.428743	-0.454625	0.280583
	O1981	O	0.416681	-0.373233	0.227086
	O1982	O	0.416633	-0.123185	0.272563
	O1983	O	0.487418	-0.460394	0.304962
	O1984	O	0.404145	-0.459715	0.278982
	O1985	O	0.345454	-0.455598	0.302807
	O1986	O	0.404607	-0.291281	0.280305
	O1987	O	0.404040	-0.209608	0.221139
	O1988	O	0.345472	-0.205782	0.196955
	O1989	O	0.429314	-0.286296	0.278449
	O1990	O	0.428691	-0.204941	0.219227
	O1991	O	0.487422	-0.210109	0.195559
	O1992	O	0.345893	-0.287167	0.304207
	O1993	O	0.404601	-0.041270	0.219310
	O1994	O	0.345845	-0.037295	0.195728
	O1995	O	0.487966	-0.041778	0.197299
	O1996	O	0.429222	-0.036677	0.221052
	O1997	O	0.487996	-0.291992	0.302727
	O1998	O	0.333310	-0.123940	0.310791
	O1999	O	0.499984	-0.373509	0.189250
	C2000	C	0.464535	-0.284192	0.291558
	C2001	C	0.470238	-0.374929	0.294592
	C2002	C	0.463872	-0.464221	0.294416
	C2003	C	0.452146	-0.462879	0.291501
	C2004	C	0.446461	-0.372015	0.288487
	C2005	C	0.452819	-0.282656	0.288599
	C2006	C	0.433946	-0.370968	0.282151
	C2007	C	0.482776	-0.375818	0.301148
	C2008	C	0.399462	-0.375343	0.282400
	C2009	C	0.386919	-0.374603	0.288609
	C2010	C	0.381193	-0.283938	0.291448
	C2011	C	0.369478	-0.282984	0.294270
	C2012	C	0.363168	-0.372446	0.294624
	C2013	C	0.368901	-0.463113	0.291848
	C2014	C	0.380616	-0.464199	0.288923
	C2015	C	0.350625	-0.371601	0.300835
	C2016	C	0.399385	-0.125046	0.217627
	C2017	C	0.386843	-0.124080	0.211486
	C2018	C	0.381119	-0.033391	0.208599
	C2019	C	0.369410	-0.032524	0.205639
	C2020	C	0.363107	-0.122146	0.205323
	C2021	C	0.368829	-0.212830	0.208008
	C2022	C	0.380548	-0.213810	0.210990
	C2023	C	0.350591	-0.121640	0.198970
	C2024	C	0.433895	-0.121171	0.217394
	C2025	C	0.446449	-0.122225	0.211222
	C2026	C	0.452148	-0.212910	0.208453
	C2027	C	0.463897	-0.214207	0.205656
	C2028	C	0.470231	-0.124825	0.205452
	C2029	C	0.464516	-0.034176	0.208256
	C2030	C	0.452785	-0.032823	0.210981
	C2031	C	0.482774	-0.125669	0.199181
	H2032	H	0.468161	-0.284859	0.203663
	H2033	H	0.447349	-0.282716	0.208490
	H2034	H	0.469302	-0.214315	0.291640
	H2035	H	0.448556	-0.211860	0.286458
	H2036	H	0.416729	-0.373006	0.202674
	H2037	H	0.416484	-0.123929	0.297046
	H2038	H	0.333230	-0.123899	0.286279
	H2039	H	0.500028	-0.373623	0.213626
	H2040	H	0.384885	-0.284366	0.213283
	H2041	H	0.364098	-0.282771	0.207991
	H2042	H	0.365168	-0.212231	0.296330
	H2043	H	0.385979	-0.214116	0.291321
	H2044	H	0.365081	0.038087	0.203816
	H2045	H	0.385846	0.036739	0.209018
	H2046	H	0.384920	-0.534824	0.286845
	H2047	H	0.364128	-0.532859	0.291934
	H2048	H	0.447337	-0.532234	0.291546
	H2049	H	0.468138	-0.534964	0.296690
	H2050	H	0.448515	0.038055	0.212949
	H2051	H	0.469274	0.035651	0.208203
	Al2052	Al	0.416698	0.001946	0.249931
	Al2053	Al	0.416664	0.251939	0.249626
	Al2054	Al	0.333386	0.251412	0.166680
	Al2055	Al	0.333345	0.001562	0.166651
	O2056	O	0.428729	0.044926	0.280448
	O2057	O	0.416668	0.126919	0.227148
	O2058	O	0.416679	0.377122	0.272524
	O2059	O	0.487377	0.039870	0.304626
	O2060	O	0.404114	0.040623	0.278844
	O2061	O	0.345410	0.044308	0.302999
	O2062	O	0.404533	0.209095	0.280186
	O2063	O	0.404179	0.290765	0.220700
	O2064	O	0.345443	0.294750	0.197133
	O2065	O	0.429201	0.213210	0.278596
	O2066	O	0.428804	0.295234	0.219435
	O2067	O	0.487474	0.289642	0.195190
	O2068	O	0.345849	0.212966	0.304488
	O2069	O	0.404593	0.459071	0.219519
	O2070	O	0.345932	0.463236	0.195699
	O2071	O	0.488002	0.457974	0.197026
	O2072	O	0.429312	0.463734	0.221478
	O2073	O	0.487912	0.208191	0.302768
	O2074	O	0.333262	0.376199	0.310663
	O2075	O	0.500016	0.126368	0.189167
	C2076	C	0.464496	0.216009	0.291850
	C2077	C	0.470184	0.125297	0.294782
	C2078	C	0.463847	0.035913	0.294407
	C2079	C	0.452104	0.037542	0.291544
	C2080	C	0.446426	0.128323	0.288586
	C2081	C	0.452759	0.217648	0.288926
	C2082	C	0.433885	0.129078	0.282297
	C2083	C	0.482717	0.124317	0.300966
	C2084	C	0.399414	0.125132	0.282350
	C2085	C	0.386862	0.125681	0.288613
	C2086	C	0.381115	0.216457	0.291328
	C2087	C	0.369388	0.217453	0.294329
	C2088	C	0.363097	0.127748	0.294745
	C2089	C	0.368832	0.037000	0.291939
	C2090	C	0.380565	0.036067	0.288901
	C2091	C	0.350565	0.128446	0.300997
	C2092	C	0.399454	0.374891	0.217375
	C2093	C	0.386926	0.375378	0.211253
	C2094	C	0.381209	0.466110	0.208457
	C2095	C	0.369480	0.467587	0.205698
	C2096	C	0.363163	0.378123	0.205433
	C2097	C	0.368879	0.287411	0.208211
	C2098	C	0.380615	0.285915	0.211003
	C2099	C	0.350610	0.378725	0.199252
	C2100	C	0.433960	0.379178	0.217695
	C2101	C	0.446519	0.378224	0.211417
	C2102	C	0.452194	0.287445	0.208362
	C2103	C	0.463924	0.285878	0.205301
	C2104	C	0.470261	0.374969	0.205119
	C2105	C	0.464589	0.465806	0.208084
	C2106	C	0.452843	0.467448	0.211040
	C2107	C	0.482798	0.373963	0.198784
	H2108	H	0.468151	0.214848	0.203235
	H2109	H	0.447447	0.217764	0.208573
	H2110	H	0.469248	0.285766	0.291865
	H2111	H	0.448507	0.288601	0.286875
	H2112	H	0.416803	0.126703	0.202731
	H2113	H	0.416588	0.376963	0.296992
	H2114	H	0.333181	0.375612	0.286327
	H2115	H	0.500018	0.126612	0.213581
	H2116	H	0.384871	0.215132	0.213048
	H2117	H	0.364114	0.217720	0.208201
	H2118	H	0.365084	0.288224	0.296383
	H2119	H	0.385887	0.286490	0.291170
	H2120	H	0.365202	0.538229	0.203796
	H2121	H	0.385968	0.535851	0.208672
	H2122	H	0.384862	-0.034446	0.286798
	H2123	H	0.364087	-0.032682	0.292095
	H2124	H	0.447311	-0.032214	0.291462
	H2125	H	0.468101	-0.034960	0.296421
	H2126	H	0.448584	0.538275	0.213282
	H2127	H	0.469380	0.535456	0.208142
	Al2128	Al	0.416643	-0.498327	0.416805
	Al2129	Al	0.416704	-0.248352	0.416764
	Al2130	Al	0.333362	-0.249006	0.333351
	Al2131	Al	0.333329	-0.498753	0.333311
	O2132	O	0.428788	-0.455389	0.447106
	O2133	O	0.416655	-0.373534	0.394137
	O2134	O	0.416633	-0.123579	0.439463
	O2135	O	0.487421	-0.459847	0.471236
	O2136	O	0.404147	-0.459596	0.445954
	O2137	O	0.345403	-0.455572	0.469225
	O2138	O	0.404614	-0.291320	0.447465
	O2139	O	0.404131	-0.210424	0.387549
	O2140	O	0.345422	-0.206087	0.363930
	O2141	O	0.429242	-0.286898	0.445680
	O2142	O	0.428742	-0.205586	0.386298
	O2143	O	0.487451	-0.210072	0.362177
	O2144	O	0.345882	-0.287174	0.470680
	O2145	O	0.404611	-0.042160	0.385856
	O2146	O	0.345894	-0.037789	0.362491
	O2147	O	0.487967	-0.041746	0.364166
	O2148	O	0.429212	-0.037231	0.387882
	O2149	O	0.488000	-0.291509	0.469337
	O2150	O	0.333319	-0.123676	0.477160
	O2151	O	0.500034	-0.373169	0.356253
	C2152	C	0.464502	-0.283961	0.458458
	C2153	C	0.470224	-0.374628	0.461274
	C2154	C	0.463897	-0.464137	0.461208
	C2155	C	0.452161	-0.463209	0.458289
	C2156	C	0.446465	-0.372429	0.455202
	C2157	C	0.452776	-0.282839	0.455569
	C2158	C	0.433933	-0.371428	0.449154
	C2159	C	0.482781	-0.375300	0.467528
	C2160	C	0.399435	-0.375348	0.449354
	C2161	C	0.386913	-0.374344	0.455637
	C2162	C	0.381168	-0.283719	0.458106
	C2163	C	0.369441	-0.282763	0.460865
	C2164	C	0.363136	-0.372300	0.461338
	C2165	C	0.368878	-0.462971	0.458948
	C2166	C	0.380607	-0.463934	0.456175
	C2167	C	0.350596	-0.371581	0.467447
	C2168	C	0.399444	-0.126046	0.384022
	C2169	C	0.386900	-0.125177	0.377848
	C2170	C	0.381179	-0.034414	0.375176
	C2171	C	0.369439	-0.033343	0.372436
	C2172	C	0.363145	-0.122957	0.372149
	C2173	C	0.368871	-0.213671	0.374828
	C2174	C	0.380597	-0.214749	0.377580
	C2175	C	0.350577	-0.122126	0.365937
	C2176	C	0.433904	-0.121622	0.384276
	C2177	C	0.446444	-0.122576	0.378011
	C2178	C	0.452171	-0.213242	0.374928
	C2179	C	0.463893	-0.214360	0.372069
	C2180	C	0.470234	-0.124811	0.371995
	C2181	C	0.464516	-0.034042	0.374973
	C2182	C	0.452785	-0.033057	0.377802
	C2183	C	0.482786	-0.125718	0.365867
	H2184	H	0.468204	-0.284992	0.370072
	H2185	H	0.447420	-0.282813	0.374999
	H2186	H	0.469227	-0.214189	0.458364
	H2187	H	0.448495	-0.212156	0.453379
	H2188	H	0.416660	-0.373786	0.369538
	H2189	H	0.416521	-0.122877	0.463858
	H2190	H	0.333323	-0.123872	0.452601
	H2191	H	0.500069	-0.372801	0.380814
	H2192	H	0.384911	-0.285354	0.379525
	H2193	H	0.364144	-0.283409	0.374796
	H2194	H	0.365119	-0.212003	0.462617
	H2195	H	0.385897	-0.213835	0.457705
	H2196	H	0.365126	0.037266	0.370480
	H2197	H	0.385935	0.035443	0.375285
	H2198	H	0.384925	-0.534610	0.454344
	H2199	H	0.364142	-0.532682	0.459289
	H2200	H	0.447402	-0.533016	0.458255
	H2201	H	0.468200	-0.534676	0.463239
	H2202	H	0.448500	0.037639	0.380109
	H2203	H	0.469303	0.035756	0.375092
	Al2204	Al	0.416657	0.001290	0.416628
	Al2205	Al	0.416647	0.251672	0.416335
	Al2206	Al	0.333297	0.251288	0.333542
	Al2207	Al	0.333319	0.001051	0.333682
	O2208	O	0.428706	0.045121	0.447363
	O2209	O	0.416711	0.126311	0.393743
	O2210	O	0.416629	0.376239	0.439343
	O2211	O	0.487379	0.039965	0.471268
	O2212	O	0.404126	0.040002	0.445403
	O2213	O	0.345417	0.044428	0.469495
	O2214	O	0.404609	0.208220	0.447061
	O2215	O	0.404049	0.290161	0.387854
	O2216	O	0.345408	0.294673	0.364051
	O2217	O	0.429255	0.213219	0.445274
	O2218	O	0.428685	0.294569	0.385750
	O2219	O	0.487393	0.289446	0.362130
	O2220	O	0.345930	0.212829	0.471047
	O2221	O	0.404539	0.458733	0.386207
	O2222	O	0.345836	0.463028	0.362393
	O2223	O	0.487971	0.457930	0.364305
	O2224	O	0.429167	0.462934	0.387679
	O2225	O	0.487874	0.208311	0.469550
	O2226	O	0.333345	0.375820	0.477033
	O2227	O	0.500028	0.126421	0.355935
	C2228	C	0.464478	0.216105	0.458340
	C2229	C	0.470180	0.125322	0.461404
	C2230	C	0.463822	0.036063	0.461304
	C2231	C	0.452120	0.037349	0.458327
	C2232	C	0.446412	0.128023	0.455290
	C2233	C	0.452766	0.217476	0.455381
	C2234	C	0.433886	0.128878	0.448991
	C2235	C	0.482706	0.124412	0.467624
	C2236	C	0.399451	0.124383	0.449048
	C2237	C	0.386899	0.124998	0.455228
	C2238	C	0.381188	0.215717	0.457944
	C2239	C	0.369466	0.217024	0.460855
	C2240	C	0.363155	0.127359	0.461468
	C2241	C	0.368861	0.036710	0.458717
	C2242	C	0.380584	0.035485	0.455762
	C2243	C	0.350606	0.128441	0.467670
	C2244	C	0.399374	0.374761	0.384363
	C2245	C	0.386831	0.375867	0.378065
	C2246	C	0.381111	0.466714	0.375616
	C2247	C	0.369392	0.467480	0.372826
	C2248	C	0.363093	0.377870	0.372205
	C2249	C	0.368805	0.287007	0.374888
	C2250	C	0.380535	0.286223	0.377617
	C2251	C	0.350547	0.378795	0.365960
	C2252	C	0.433862	0.378657	0.384064
	C2253	C	0.446424	0.377720	0.377924
	C2254	C	0.452123	0.286954	0.374990
	C2255	C	0.463853	0.285707	0.372126
	C2256	C	0.470209	0.375109	0.372024
	C2257	C	0.464500	0.465903	0.374891
	C2258	C	0.452770	0.467148	0.377701
	C2259	C	0.482755	0.374021	0.365823
	H2260	H	0.468149	0.214865	0.370002
	H2261	H	0.447364	0.217332	0.375012
	H2262	H	0.469290	0.285740	0.458423
	H2263	H	0.448476	0.288079	0.453243
	H2264	H	0.416888	0.126245	0.369278
	H2265	H	0.416587	0.376278	0.463920
	H2266	H	0.333445	0.375619	0.452690
	H2267	H	0.500062	0.126552	0.380465
	H2268	H	0.384845	0.215606	0.379328
	H2269	H	0.364056	0.217153	0.374584
	H2270	H	0.365171	0.287710	0.462730
	H2271	H	0.385959	0.285599	0.457620
	H2272	H	0.365099	0.538012	0.370895
	H2273	H	0.385878	0.536473	0.375737
	H2274	H	0.384884	-0.035139	0.453808
	H2275	H	0.364094	-0.032979	0.458927
	H2276	H	0.447315	-0.032310	0.458419
	H2277	H	0.468096	-0.034954	0.463696
	H2278	H	0.448484	0.537712	0.379882
	H2279	H	0.469277	0.535758	0.374985
	Al2280	Al	0.416653	-0.498298	0.583111
	Al2281	Al	0.416633	-0.248165	0.583231
	Al2282	Al	0.333334	-0.248766	0.499853
	Al2283	Al	0.333311	-0.498951	0.499667
	O2284	O	0.428680	-0.455272	0.613697
	O2285	O	0.416647	-0.372969	0.560516
	O2286	O	0.416692	-0.123203	0.605885
	O2287	O	0.487363	-0.460457	0.638051
	O2288	O	0.404120	-0.460243	0.612180
	O2289	O	0.345402	-0.455698	0.636190
	O2290	O	0.404587	-0.291708	0.613760
	O2291	O	0.404122	-0.209415	0.554181
	O2292	O	0.345431	-0.206152	0.530413
	O2293	O	0.429169	-0.287097	0.611982
	O2294	O	0.428715	-0.204357	0.552551
	O2295	O	0.487404	-0.210121	0.528830
	O2296	O	0.345877	-0.287309	0.637803
	O2297	O	0.404556	-0.041168	0.552818
	O2298	O	0.345875	-0.037787	0.528841
	O2299	O	0.487970	-0.041749	0.530524
	O2300	O	0.429250	-0.036022	0.554591
	O2301	O	0.487858	-0.292051	0.636377
	O2302	O	0.333325	-0.123597	0.643985
	O2303	O	0.499995	-0.373403	0.522725
	C2304	C	0.464465	-0.284500	0.625069
	C2305	C	0.470155	-0.375239	0.628134
	C2306	C	0.463799	-0.464774	0.628209
	C2307	C	0.452084	-0.463360	0.625130
	C2308	C	0.446413	-0.372568	0.621723
	C2309	C	0.452756	-0.283056	0.622055
	C2310	C	0.433863	-0.371357	0.615462
	C2311	C	0.482701	-0.376007	0.634488
	C2312	C	0.399419	-0.375640	0.615709
	C2313	C	0.386888	-0.375127	0.621848
	C2314	C	0.381172	-0.284237	0.624405
	C2315	C	0.369442	-0.283070	0.627236
	C2316	C	0.363118	-0.372477	0.627769
	C2317	C	0.368832	-0.463323	0.624993
	C2318	C	0.380562	-0.464523	0.622106
	C2319	C	0.350577	-0.371801	0.634209
	C2320	C	0.399418	-0.125162	0.550833
	C2321	C	0.386865	-0.124441	0.544701
	C2322	C	0.381119	-0.033866	0.542174
	C2323	C	0.369388	-0.033023	0.539268
	C2324	C	0.363117	-0.122712	0.538648
	C2325	C	0.368866	-0.213325	0.541370
	C2326	C	0.380591	-0.214209	0.544193
	C2327	C	0.350578	-0.122170	0.532421
	C2328	C	0.433884	-0.120628	0.550878
	C2329	C	0.446449	-0.121588	0.544772
	C2330	C	0.452121	-0.212504	0.541668
	C2331	C	0.463841	-0.213857	0.538808
	C2332	C	0.470197	-0.124548	0.538699
	C2333	C	0.464520	-0.033670	0.541952
	C2334	C	0.452808	-0.032327	0.544830
	C2335	C	0.482769	-0.125510	0.532325
	H2336	H	0.468127	-0.284639	0.536657
	H2337	H	0.447339	-0.282402	0.541565
	H2338	H	0.469276	-0.214895	0.624970
	H2339	H	0.448497	-0.212221	0.619882
	H2340	H	0.416640	-0.373060	0.535974
	H2341	H	0.416562	-0.123009	0.630361
	H2342	H	0.333267	-0.123311	0.619573
	H2343	H	0.499955	-0.373305	0.547058
	H2344	H	0.384874	-0.284908	0.545960
	H2345	H	0.364098	-0.283198	0.541166
	H2346	H	0.365137	-0.212217	0.629182
	H2347	H	0.385944	-0.214450	0.624096
	H2348	H	0.365081	0.037903	0.537436
	H2349	H	0.385874	0.035823	0.542430
	H2350	H	0.384837	-0.535283	0.620062
	H2351	H	0.364060	-0.533202	0.625156
	H2352	H	0.447263	-0.532918	0.625217
	H2353	H	0.468060	-0.535669	0.630532
	H2354	H	0.448533	0.038173	0.547103
	H2355	H	0.469293	0.035882	0.542106
	Al2356	Al	0.416671	0.002236	0.583281
	Al2357	Al	0.416667	0.251839	0.583227
	Al2358	Al	0.333375	0.251119	0.500020
	Al2359	Al	0.333340	0.001269	0.499842
	O2360	O	0.428743	0.045046	0.613785
	O2361	O	0.416676	0.127124	0.560511
	O2362	O	0.416647	0.376791	0.605860
	O2363	O	0.487441	0.039398	0.638064
	O2364	O	0.404111	0.040002	0.612266
	O2365	O	0.345386	0.044322	0.635824
	O2366	O	0.404589	0.208300	0.613868
	O2367	O	0.404132	0.290306	0.554243
	O2368	O	0.345390	0.294531	0.530667
	O2369	O	0.429247	0.213551	0.612115
	O2370	O	0.428724	0.294749	0.552591
	O2371	O	0.487481	0.289639	0.529112
	O2372	O	0.345875	0.212711	0.637456
	O2373	O	0.404502	0.458533	0.552806
	O2374	O	0.345898	0.462775	0.528459
	O2375	O	0.487963	0.458034	0.530657
	O2376	O	0.429256	0.463299	0.554354
	O2377	O	0.487974	0.207939	0.635896
	O2378	O	0.333374	0.376444	0.643786
	O2379	O	0.500019	0.126217	0.522763
	C2380	C	0.464559	0.215815	0.625019
	C2381	C	0.470223	0.124861	0.627909
	C2382	C	0.463861	0.035530	0.627995
	C2383	C	0.452120	0.037028	0.625058
	C2384	C	0.446463	0.128027	0.621845
	C2385	C	0.452814	0.217391	0.622155
	C2386	C	0.433920	0.128988	0.615745
	C2387	C	0.482773	0.123899	0.634242
	C2388	C	0.399437	0.124300	0.615900
	C2389	C	0.386872	0.125375	0.622188
	C2390	C	0.381139	0.216125	0.624570
	C2391	C	0.369413	0.217169	0.627435
	C2392	C	0.363105	0.127539	0.627963
	C2393	C	0.368838	0.036856	0.625244
	C2394	C	0.380572	0.035746	0.622450
	C2395	C	0.350557	0.128260	0.634060
	C2396	C	0.399391	0.374569	0.550887
	C2397	C	0.386837	0.374822	0.544620
	C2398	C	0.381128	0.465591	0.541830
	C2399	C	0.369410	0.466761	0.538835
	C2400	C	0.363102	0.377342	0.538468
	C2401	C	0.368804	0.286570	0.541258
	C2402	C	0.380532	0.285385	0.544171
	C2403	C	0.350562	0.378408	0.532349
	C2404	C	0.433935	0.378782	0.550794
	C2405	C	0.446478	0.377470	0.544584
	C2406	C	0.452192	0.286822	0.541598
	C2407	C	0.463924	0.285669	0.538847
	C2408	C	0.470260	0.375203	0.538826
	C2409	C	0.464553	0.465868	0.541821
	C2410	C	0.452822	0.466919	0.544670
	C2411	C	0.482788	0.374136	0.532514
	H2412	H	0.468183	0.214785	0.536674
	H2413	H	0.447396	0.216996	0.541583
	H2414	H	0.469357	0.285469	0.624643
	H2415	H	0.448553	0.288056	0.619793
	H2416	H	0.416741	0.126894	0.535933
	H2417	H	0.416514	0.376703	0.630345
	H2418	H	0.333299	0.377094	0.619336
	H2419	H	0.499952	0.125585	0.547089
	H2420	H	0.384851	0.214909	0.546046
	H2421	H	0.364065	0.216587	0.541013
	H2422	H	0.365113	0.287977	0.629308
	H2423	H	0.385902	0.285659	0.624303
	H2424	H	0.365101	0.537158	0.536723
	H2425	H	0.385862	0.535767	0.541901
	H2426	H	0.384852	-0.034914	0.620496
	H2427	H	0.364080	-0.033051	0.625416
	H2428	H	0.447360	-0.032786	0.624975
	H2429	H	0.468136	-0.035275	0.630041
	H2430	H	0.448579	0.537813	0.546969
	H2431	H	0.469344	0.535346	0.541875
	Al2432	Al	0.416678	-0.498436	0.750353
	Al2433	Al	0.416644	-0.248702	0.749788
	Al2434	Al	0.333321	-0.248616	0.666728
	Al2435	Al	0.333352	-0.498355	0.666774
	O2436	O	0.428747	-0.454861	0.780882
	O2437	O	0.416676	-0.373931	0.727340
	O2438	O	0.416696	-0.123851	0.772533
	O2439	O	0.487431	-0.460312	0.804239
	O2440	O	0.404067	-0.460069	0.779094
	O2441	O	0.345412	-0.455952	0.802838
	O2442	O	0.404589	-0.291743	0.780467
	O2443	O	0.404084	-0.210533	0.720922
	O2444	O	0.345358	-0.205052	0.697384
	O2445	O	0.429261	-0.286402	0.778815
	O2446	O	0.428699	-0.205248	0.719167
	O2447	O	0.487502	-0.210236	0.695851
	O2448	O	0.345828	-0.287638	0.803841
	O2449	O	0.404577	-0.041962	0.719256
	O2450	O	0.345898	-0.036774	0.695502
	O2451	O	0.487977	-0.041877	0.697378
	O2452	O	0.429258	-0.036752	0.721037
	O2453	O	0.487927	-0.292042	0.802461
	O2454	O	0.333356	-0.124051	0.810472
	O2455	O	0.500020	-0.373970	0.689257
	C2456	C	0.464516	-0.283899	0.791770
	C2457	C	0.470202	-0.374787	0.794630
	C2458	C	0.463852	-0.464217	0.794467
	C2459	C	0.452142	-0.462825	0.791641
	C2460	C	0.446458	-0.371902	0.788780
	C2461	C	0.452803	-0.282583	0.788905
	C2462	C	0.433933	-0.370792	0.782475
	C2463	C	0.482748	-0.376070	0.800797
	C2464	C	0.399416	-0.375503	0.782461
	C2465	C	0.386863	-0.375022	0.788721
	C2466	C	0.381148	-0.284411	0.791573
	C2467	C	0.369424	-0.283050	0.794454
	C2468	C	0.363103	-0.372483	0.794552
	C2469	C	0.368811	-0.463192	0.791743
	C2470	C	0.380545	-0.464462	0.788898
	C2471	C	0.350556	-0.371962	0.800650
	C2472	C	0.399389	-0.126184	0.717405
	C2473	C	0.386860	-0.124908	0.711176
	C2474	C	0.381149	-0.034193	0.708423
	C2475	C	0.369438	-0.033005	0.705526
	C2476	C	0.363099	-0.122378	0.705266
	C2477	C	0.368802	-0.213215	0.708170
	C2478	C	0.380521	-0.214385	0.711064
	C2479	C	0.350551	-0.121176	0.699115
	C2480	C	0.433899	-0.121555	0.717341
	C2481	C	0.446466	-0.122281	0.711335
	C2482	C	0.452196	-0.213033	0.708310
	C2483	C	0.463918	-0.214518	0.705503
	C2484	C	0.470254	-0.125015	0.705391
	C2485	C	0.464535	-0.034185	0.708222
	C2486	C	0.452797	-0.032739	0.711048
	C2487	C	0.482818	-0.125892	0.699302
	H2488	H	0.468194	-0.285276	0.703372
	H2489	H	0.447433	-0.282861	0.708299
	H2490	H	0.469283	-0.214081	0.791750
	H2491	H	0.448490	-0.211943	0.786545
	H2492	H	0.416562	-0.374458	0.702900
	H2493	H	0.416830	-0.124401	0.797141
	H2494	H	0.333232	-0.124367	0.785944
	H2495	H	0.500012	-0.374103	0.713805
	H2496	H	0.384817	-0.285057	0.713325
	H2497	H	0.364007	-0.282779	0.708105
	H2498	H	0.365159	-0.212344	0.796716
	H2499	H	0.385894	-0.214593	0.791577
	H2500	H	0.365165	0.037924	0.703460
	H2501	H	0.385926	0.035589	0.708582
	H2502	H	0.384850	-0.535232	0.786799
	H2503	H	0.364052	-0.532921	0.791838
	H2504	H	0.447386	-0.532895	0.791517
	H2505	H	0.468154	-0.534802	0.796515
	H2506	H	0.448502	0.038038	0.713095
	H2507	H	0.469337	0.035409	0.708239
	Al2508	Al	0.416669	0.001201	0.749897
	Al2509	Al	0.416681	0.251662	0.749938
	Al2510	Al	0.333384	0.251322	0.666310
	Al2511	Al	0.333350	0.001571	0.666655
	O2512	O	0.428776	0.044441	0.780408
	O2513	O	0.416660	0.126579	0.727193
	O2514	O	0.416669	0.376482	0.772921
	O2515	O	0.487397	0.039964	0.804797
	O2516	O	0.404160	0.039569	0.778863
	O2517	O	0.345509	0.043852	0.802840
	O2518	O	0.404658	0.208012	0.780548
	O2519	O	0.404134	0.290112	0.721037
	O2520	O	0.345367	0.294852	0.697037
	O2521	O	0.429233	0.212680	0.778806
	O2522	O	0.428681	0.294875	0.719301
	O2523	O	0.487364	0.289547	0.695378
	O2524	O	0.345958	0.212412	0.804417
	O2525	O	0.404573	0.458533	0.719618
	O2526	O	0.345940	0.463436	0.695445
	O2527	O	0.487934	0.457826	0.697421
	O2528	O	0.429245	0.463212	0.721485
	O2529	O	0.487925	0.208138	0.802610
	O2530	O	0.333366	0.376080	0.810422
	O2531	O	0.500051	0.126461	0.689478
	C2532	C	0.464463	0.215846	0.791678
	C2533	C	0.470193	0.125202	0.794643
	C2534	C	0.463867	0.035585	0.794386
	C2535	C	0.452150	0.036675	0.791487
	C2536	C	0.446438	0.127402	0.788492
	C2537	C	0.452739	0.217075	0.788788
	C2538	C	0.433916	0.128527	0.782359
	C2539	C	0.482731	0.124307	0.800944
	C2540	C	0.399519	0.124017	0.782585
	C2541	C	0.386946	0.125161	0.788745
	C2542	C	0.381231	0.216036	0.791579
	C2543	C	0.369506	0.216995	0.794410
	C2544	C	0.363199	0.127204	0.794740
	C2545	C	0.368927	0.036479	0.791921
	C2546	C	0.380629	0.035406	0.789045
	C2547	C	0.350645	0.127982	0.800972
	C2548	C	0.399410	0.374563	0.717580
	C2549	C	0.386865	0.375157	0.711462
	C2550	C	0.381151	0.466003	0.708572
	C2551	C	0.369422	0.467272	0.705536
	C2552	C	0.363107	0.377663	0.705222
	C2553	C	0.368818	0.286870	0.708026
	C2554	C	0.380550	0.285687	0.711018
	C2555	C	0.350577	0.378740	0.698942
	C2556	C	0.433889	0.378795	0.717685
	C2557	C	0.446416	0.377768	0.711347
	C2558	C	0.452104	0.286979	0.708216
	C2559	C	0.463836	0.285720	0.705333
	C2560	C	0.470181	0.375179	0.705407
	C2561	C	0.464490	0.466005	0.708401
	C2562	C	0.452759	0.467265	0.711290
	C2563	C	0.482741	0.374087	0.699142
	H2564	H	0.468116	0.215067	0.703016
	H2565	H	0.447291	0.217357	0.708031
	H2566	H	0.469250	0.285507	0.791750
	H2567	H	0.448492	0.287751	0.786803
	H2568	H	0.416786	0.126791	0.702740
	H2569	H	0.416691	0.375713	0.797457
	H2570	H	0.333657	0.376460	0.785899
	H2571	H	0.500020	0.126990	0.713946
	H2572	H	0.384825	0.214920	0.713132
	H2573	H	0.364059	0.217054	0.707944
	H2574	H	0.365177	0.287347	0.796238
	H2575	H	0.386014	0.285808	0.791263
	H2576	H	0.365130	0.538287	0.703623
	H2577	H	0.385912	0.535915	0.708843
	H2578	H	0.384939	-0.035295	0.786776
	H2579	H	0.364171	-0.033390	0.791709
	H2580	H	0.447339	-0.032959	0.791490
	H2581	H	0.468150	-0.035224	0.796454
	H2582	H	0.448506	0.538100	0.713356
	H2583	H	0.469269	0.535883	0.708374
	Al2584	Al	0.416656	-0.498550	0.916726
	Al2585	Al	0.416689	-0.248474	0.916840
	Al2586	Al	0.333330	-0.249074	0.833175
	Al2587	Al	0.333298	-0.499158	0.833267
	O2588	O	0.428685	-0.454812	0.947477
	O2589	O	0.416667	-0.373484	0.894060
	O2590	O	0.416658	-0.123268	0.939282
	O2591	O	0.487395	-0.460573	0.970720
	O2592	O	0.404070	-0.460669	0.945442
	O2593	O	0.345385	-0.455622	0.969309
	O2594	O	0.404650	-0.292479	0.947563
	O2595	O	0.404073	-0.210700	0.888133
	O2596	O	0.345409	-0.206062	0.863616
	O2597	O	0.429270	-0.286412	0.945551
	O2598	O	0.428711	-0.205338	0.885908
	O2599	O	0.487436	-0.210842	0.862044
	O2600	O	0.345883	-0.287527	0.970852
	O2601	O	0.404591	-0.042225	0.886040
	O2602	O	0.345890	-0.037654	0.862269
	O2603	O	0.487986	-0.042424	0.864099
	O2604	O	0.429274	-0.037122	0.887862
	O2605	O	0.487942	-0.292282	0.969284
	O2606	O	0.333305	-0.123799	0.977004
	O2607	O	0.500068	-0.373452	0.855826
	C2608	C	0.464513	-0.284262	0.958213
	C2609	C	0.470204	-0.374974	0.961210
	C2610	C	0.463847	-0.464495	0.960962
	C2611	C	0.452131	-0.463022	0.958160
	C2612	C	0.446436	-0.372172	0.955328
	C2613	C	0.452794	-0.282687	0.955484
	C2614	C	0.433908	-0.370877	0.949131
	C2615	C	0.482754	-0.376059	0.967267
	C2616	C	0.399430	-0.376077	0.949149
	C2617	C	0.386878	-0.374982	0.955271
	C2618	C	0.381162	-0.284300	0.957954
	C2619	C	0.369442	-0.283306	0.960749
	C2620	C	0.363114	-0.372768	0.961265
	C2621	C	0.368828	-0.463340	0.958579
	C2622	C	0.380550	-0.464327	0.955611
	C2623	C	0.350588	-0.371774	0.967513
	C2624	C	0.399436	-0.126282	0.884299
	C2625	C	0.386889	-0.125532	0.878011
	C2626	C	0.381178	-0.034726	0.875288
	C2627	C	0.369444	-0.033292	0.872363
	C2628	C	0.363115	-0.122838	0.871920
	C2629	C	0.368825	-0.213725	0.874747
	C2630	C	0.380558	-0.215122	0.877624
	C2631	C	0.350585	-0.122019	0.865779
	C2632	C	0.433924	-0.121562	0.884127
	C2633	C	0.446443	-0.122575	0.878048
	C2634	C	0.452149	-0.213294	0.875053
	C2635	C	0.463876	-0.214690	0.872206
	C2636	C	0.470239	-0.125364	0.872017
	C2637	C	0.464519	-0.034544	0.874883
	C2638	C	0.452796	-0.033205	0.877788
	C2639	C	0.482766	-0.126247	0.865626
	H2640	H	0.468166	-0.285422	0.870334
	H2641	H	0.447386	-0.283033	0.875317
	H2642	H	0.469313	-0.214777	0.958310
	H2643	H	0.448521	-0.211690	0.953448
	H2644	H	0.416635	-0.373485	0.869706
	H2645	H	0.416507	-0.122667	0.963787
	H2646	H	0.333315	-0.124080	0.952543
	H2647	H	0.500306	-0.372782	0.880309
	H2648	H	0.384873	-0.285999	0.879726
	H2649	H	0.364047	-0.283297	0.874718
	H2650	H	0.365145	-0.212591	0.962743
	H2651	H	0.385883	-0.214538	0.957804
	H2652	H	0.365163	0.037453	0.870458
	H2653	H	0.385942	0.035140	0.875519
	H2654	H	0.384881	-0.534989	0.953587
	H2655	H	0.364068	-0.533386	0.958813
	H2656	H	0.447321	-0.532507	0.958337
	H2657	H	0.468109	-0.535264	0.963179
	H2658	H	0.448526	0.037538	0.880128
	H2659	H	0.469297	0.035216	0.875051
	Al2660	Al	0.416677	0.001772	0.916500
	Al2661	Al	0.416682	0.251781	0.916479
	Al2662	Al	0.333349	0.250794	0.833208
	Al2663	Al	0.333350	0.000735	0.833163
	O2664	O	0.428704	0.044895	0.947034
	O2665	O	0.416646	0.126636	0.893703
	O2666	O	0.416732	0.376300	0.939234
	O2667	O	0.487411	0.039366	0.971223
	O2668	O	0.404167	0.039794	0.945465
	O2669	O	0.345470	0.044347	0.969423
	O2670	O	0.404646	0.208174	0.947100
	O2671	O	0.404099	0.289725	0.887800
	O2672	O	0.345416	0.294233	0.863770
	O2673	O	0.429313	0.213236	0.945149
	O2674	O	0.428753	0.295027	0.885778
	O2675	O	0.487449	0.289710	0.862165
	O2676	O	0.345912	0.212516	0.971005
	O2677	O	0.404585	0.458328	0.886215
	O2678	O	0.345881	0.462460	0.862184
	O2679	O	0.487978	0.457951	0.863554
	O2680	O	0.429284	0.463484	0.888057
	O2681	O	0.487871	0.207769	0.969364
	O2682	O	0.333289	0.376311	0.977101
	O2683	O	0.500040	0.126353	0.856119
	C2684	C	0.464513	0.215341	0.958389
	C2685	C	0.470190	0.124374	0.961250
	C2686	C	0.463852	0.035091	0.960988
	C2687	C	0.452119	0.036495	0.958084
	C2688	C	0.446454	0.127380	0.955134
	C2689	C	0.452792	0.216668	0.955461
	C2690	C	0.433938	0.128559	0.948897
	C2691	C	0.482723	0.123669	0.967461
	C2692	C	0.399486	0.124212	0.949079
	C2693	C	0.386963	0.124863	0.955368
	C2694	C	0.381263	0.215734	0.958144
	C2695	C	0.369534	0.216955	0.961047
	C2696	C	0.363203	0.127568	0.961494
	C2697	C	0.368910	0.036780	0.958820
	C2698	C	0.380636	0.035357	0.955881
	C2699	C	0.350632	0.128177	0.967639
	C2700	C	0.399412	0.374194	0.884272
	C2701	C	0.386878	0.374888	0.877912
	C2702	C	0.381178	0.465688	0.875039
	C2703	C	0.369433	0.466708	0.872148
	C2704	C	0.363120	0.377213	0.871857
	C2705	C	0.368837	0.286364	0.874725
	C2706	C	0.380570	0.285246	0.877639
	C2707	C	0.350568	0.378135	0.865634
	C2708	C	0.433951	0.379023	0.884218
	C2709	C	0.446494	0.378045	0.877949
	C2710	C	0.452170	0.287210	0.875023
	C2711	C	0.463907	0.285903	0.872217
	C2712	C	0.470243	0.375333	0.871920
	C2713	C	0.464567	0.466115	0.874911
	C2714	C	0.452833	0.467474	0.877755
	C2715	C	0.482800	0.374134	0.865664
	H2716	H	0.468167	0.215124	0.870028
	H2717	H	0.447370	0.217466	0.874904
	H2718	H	0.469295	0.285096	0.958419
	H2719	H	0.448507	0.287231	0.953343
	H2720	H	0.416503	0.127001	0.869286
	H2721	H	0.416723	0.376052	0.963711
	H2722	H	0.333192	0.376332	0.952512
	H2723	H	0.500286	0.126922	0.880644
	H2724	H	0.384832	0.214381	0.879838
	H2725	H	0.364060	0.216430	0.874872
	H2726	H	0.365236	0.287930	0.962943
	H2727	H	0.386043	0.285353	0.957833
	H2728	H	0.365151	0.537560	0.870270
	H2729	H	0.385934	0.535798	0.875250
	H2730	H	0.384886	-0.035675	0.953829
	H2731	H	0.364127	-0.033126	0.958966
	H2732	H	0.447342	-0.033315	0.958010
	H2733	H	0.468114	-0.035636	0.962956
	H2734	H	0.448562	0.538184	0.879730
	H2735	H	0.469353	0.535872	0.874912
	Al2736	Al	0.583338	-0.499337	0.083358
	Al2737	Al	0.583328	-0.249575	0.083127
	Al2738	Al	0.500020	-0.248941	-0.000127
	Al2739	Al	0.499991	-0.498850	-0.000436
	O2740	O	0.595408	-0.455390	0.114073
	O2741	O	0.583303	-0.374355	0.060578
	O2742	O	0.583394	-0.124231	0.105910
	O2743	O	0.654080	-0.461496	0.137767
	O2744	O	0.570775	-0.460905	0.112385
	O2745	O	0.512067	-0.455297	0.136002
	O2746	O	0.571254	-0.292286	0.113858
	O2747	O	0.570780	-0.211068	0.054266
	O2748	O	0.512069	-0.205734	0.030483
	O2749	O	0.595954	-0.287225	0.111873
	O2750	O	0.595402	-0.206247	0.052411
	O2751	O	0.654089	-0.211815	0.029083
	O2752	O	0.512582	-0.286862	0.137608
	O2753	O	0.571287	-0.042497	0.052470
	O2754	O	0.512596	-0.037337	0.028761
	O2755	O	0.654627	-0.043206	0.030502
	O2756	O	0.595912	-0.037682	0.054558
	O2757	O	0.654618	-0.292995	0.136256
	O2758	O	0.499945	-0.123710	0.143825
	O2759	O	0.666630	-0.375094	0.023008
	C2760	C	0.631238	-0.284781	0.125113
	C2761	C	0.636898	-0.375675	0.127970
	C2762	C	0.630553	-0.464979	0.127792
	C2763	C	0.618834	-0.463498	0.124885
	C2764	C	0.613163	-0.372663	0.122011
	C2765	C	0.619506	-0.283168	0.122274
	C2766	C	0.600611	-0.371582	0.115696
	C2767	C	0.649440	-0.376964	0.134183
	C2768	C	0.566059	-0.376315	0.115745
	C2769	C	0.553556	-0.375261	0.121936
	C2770	C	0.547880	-0.284153	0.124831
	C2771	C	0.536158	-0.282800	0.127777
	C2772	C	0.529809	-0.372388	0.128004
	C2773	C	0.535486	-0.463329	0.125076
	C2774	C	0.547216	-0.464766	0.122124
	C2775	C	0.517267	-0.371519	0.134204
	C2776	C	0.566124	-0.126589	0.050531
	C2777	C	0.553567	-0.125908	0.044410
	C2778	C	0.547877	-0.034967	0.041578
	C2779	C	0.536146	-0.033292	0.038777
	C2780	C	0.529806	-0.122756	0.038461
	C2781	C	0.535477	-0.213704	0.041342
	C2782	C	0.547221	-0.215354	0.044058
	C2783	C	0.517243	-0.121632	0.032491
	C2784	C	0.600576	-0.122174	0.050785
	C2785	C	0.613140	-0.123134	0.044721
	C2786	C	0.618824	-0.213936	0.041721
	C2787	C	0.630572	-0.215239	0.038895
	C2788	C	0.636908	-0.125780	0.038695
	C2789	C	0.631217	-0.034782	0.041514
	C2790	C	0.619468	-0.033609	0.044384
	C2791	C	0.649446	-0.126942	0.032479
	H2792	H	0.634836	-0.286133	0.036789
	H2793	H	0.614029	-0.283833	0.041560
	H2794	H	0.636046	-0.215148	0.125089
	H2795	H	0.615254	-0.212375	0.120162
	H2796	H	0.583265	-0.374620	0.036018
	H2797	H	0.583448	-0.124553	0.130298
	H2798	H	0.499988	-0.124118	0.119247
	H2799	H	0.666527	-0.375050	0.047332
	H2800	H	0.551498	-0.286430	0.045799
	H2801	H	0.530683	-0.283355	0.041311
	H2802	H	0.531888	-0.212010	0.129842
	H2803	H	0.552660	-0.214466	0.124704
	H2804	H	0.531868	0.037494	0.036745
	H2805	H	0.552692	0.034581	0.041387
	H2806	H	0.551473	-0.535496	0.119933
	H2807	H	0.530678	-0.532772	0.125121
	H2808	H	0.614055	-0.533209	0.124778
	H2809	H	0.634802	-0.535866	0.129831
	H2810	H	0.615194	0.037305	0.046267
	H2811	H	0.635986	0.034926	0.041291
	Al2812	Al	0.583332	0.000650	0.083182
	Al2813	Al	0.583316	0.250627	0.083570
	Al2814	Al	0.499956	0.251335	-0.000157
	Al2815	Al	0.499965	0.001084	0.000011
	O2816	O	0.595386	0.044053	0.113868
	O2817	O	0.583337	0.125742	0.060635
	O2818	O	0.583336	0.375933	0.106166
	O2819	O	0.654102	0.038401	0.137736
	O2820	O	0.570747	0.038629	0.112142
	O2821	O	0.512018	0.044593	0.135823
	O2822	O	0.571272	0.207140	0.114114
	O2823	O	0.570693	0.289014	0.054867
	O2824	O	0.512082	0.294485	0.030467
	O2825	O	0.595920	0.212576	0.112321
	O2826	O	0.595372	0.293632	0.052776
	O2827	O	0.654077	0.288073	0.028994
	O2828	O	0.512623	0.212945	0.137650
	O2829	O	0.571322	0.457272	0.052487
	O2830	O	0.512604	0.462953	0.028389
	O2831	O	0.654643	0.456334	0.030874
	O2832	O	0.595866	0.462121	0.054401
	O2833	O	0.654602	0.207009	0.136072
	O2834	O	0.499962	0.376232	0.143653
	O2835	O	0.666682	0.124921	0.022687
	C2836	C	0.631225	0.215076	0.124809
	C2837	C	0.636901	0.124132	0.127858
	C2838	C	0.630547	0.034637	0.127753
	C2839	C	0.618813	0.035922	0.124817
	C2840	C	0.613133	0.126883	0.121851
	C2841	C	0.619484	0.216408	0.121937
	C2842	C	0.600578	0.128033	0.115728
	C2843	C	0.649450	0.123091	0.134105
	C2844	C	0.566074	0.123187	0.115720
	C2845	C	0.553543	0.124204	0.121658
	C2846	C	0.547881	0.215120	0.124703
	C2847	C	0.536138	0.216535	0.127576
	C2848	C	0.529788	0.127102	0.127713
	C2849	C	0.535475	0.036376	0.124589
	C2850	C	0.547197	0.034892	0.121700
	C2851	C	0.517258	0.128336	0.133975
	C2852	C	0.566104	0.373513	0.050893
	C2853	C	0.553546	0.374680	0.044607
	C2854	C	0.547861	0.465749	0.041673
	C2855	C	0.536143	0.467296	0.038782
	C2856	C	0.529799	0.377762	0.038495
	C2857	C	0.535500	0.286871	0.041447
	C2858	C	0.547202	0.285198	0.044420
	C2859	C	0.517246	0.378457	0.032148
	C2860	C	0.600544	0.377583	0.050874
	C2861	C	0.613100	0.376887	0.044525
	C2862	C	0.618800	0.286086	0.041530
	C2863	C	0.630538	0.284697	0.038770
	C2864	C	0.636864	0.374084	0.038675
	C2865	C	0.631181	0.464943	0.041505
	C2866	C	0.619441	0.466202	0.044371
	C2867	C	0.649416	0.372595	0.032520
	H2868	H	0.634821	0.213957	0.036649
	H2869	H	0.614040	0.216413	0.041473
	H2870	H	0.635991	0.284857	0.124756
	H2871	H	0.615215	0.287268	0.119740
	H2872	H	0.583413	0.126201	0.036260
	H2873	H	0.583430	0.376471	0.130705
	H2874	H	0.499900	0.376534	0.119280
	H2875	H	0.666740	0.124280	0.047210
	H2876	H	0.551459	0.214273	0.046596
	H2877	H	0.530694	0.217127	0.041428
	H2878	H	0.531876	0.287301	0.129688
	H2879	H	0.552679	0.284793	0.124830
	H2880	H	0.531868	0.538020	0.036638
	H2881	H	0.552671	0.535142	0.041852
	H2882	H	0.551452	-0.035855	0.119582
	H2883	H	0.530699	-0.033359	0.124478
	H2884	H	0.614039	-0.033892	0.124839
	H2885	H	0.634828	-0.036125	0.129970
	H2886	H	0.615143	0.537129	0.046601
	H2887	H	0.635955	0.534648	0.041558
	Al2888	Al	0.583305	-0.498880	0.249989
	Al2889	Al	0.583372	-0.249005	0.249926
	Al2890	Al	0.499983	-0.248592	0.166501
	Al2891	Al	0.500007	-0.498791	0.166510
	O2892	O	0.595384	-0.455961	0.280455
	O2893	O	0.583325	-0.373991	0.227227
	O2894	O	0.583354	-0.124225	0.272794
	O2895	O	0.654043	-0.461195	0.304849
	O2896	O	0.570760	-0.460618	0.279029
	O2897	O	0.512047	-0.455117	0.302782
	O2898	O	0.571249	-0.292330	0.280296
	O2899	O	0.570787	-0.210269	0.221120
	O2900	O	0.512126	-0.205443	0.196866
	O2901	O	0.595934	-0.287389	0.278729
	O2902	O	0.595462	-0.205864	0.219453
	O2903	O	0.654131	-0.211395	0.195765
	O2904	O	0.512603	-0.286665	0.304590
	O2905	O	0.571261	-0.041910	0.219480
	O2906	O	0.512601	-0.037213	0.195284
	O2907	O	0.654657	-0.042973	0.197362
	O2908	O	0.595938	-0.037391	0.221337
	O2909	O	0.654588	-0.292638	0.303107
	O2910	O	0.499998	-0.123586	0.310577
	O2911	O	0.666673	-0.375369	0.189463
	C2912	C	0.631163	-0.284770	0.291916
	C2913	C	0.636865	-0.375578	0.294843
	C2914	C	0.630538	-0.465199	0.294318
	C2915	C	0.618803	-0.463889	0.291407
	C2916	C	0.613101	-0.372919	0.288725
	C2917	C	0.619425	-0.283413	0.288943
	C2918	C	0.600582	-0.371950	0.282433
	C2919	C	0.649387	-0.376662	0.301268
	C2920	C	0.566093	-0.376171	0.282375
	C2921	C	0.553513	-0.375299	0.288447
	C2922	C	0.547821	-0.284435	0.291569
	C2923	C	0.536103	-0.283075	0.294492
	C2924	C	0.529774	-0.372603	0.294615
	C2925	C	0.535474	-0.463350	0.291524
	C2926	C	0.547184	-0.464797	0.288606
	C2927	C	0.517239	-0.371223	0.300901
	C2928	C	0.566083	-0.126016	0.217599
	C2929	C	0.553564	-0.124920	0.211252
	C2930	C	0.547867	-0.034151	0.208133
	C2931	C	0.536149	-0.033034	0.205188
	C2932	C	0.529811	-0.122473	0.205096
	C2933	C	0.535507	-0.213248	0.208160
	C2934	C	0.547225	-0.214313	0.211088
	C2935	C	0.517291	-0.121434	0.198774
	C2936	C	0.600614	-0.121859	0.217543
	C2937	C	0.613165	-0.122598	0.211407
	C2938	C	0.618839	-0.213702	0.208595
	C2939	C	0.630570	-0.215092	0.205636
	C2940	C	0.636912	-0.125700	0.205233
	C2941	C	0.631238	-0.034733	0.208198
	C2942	C	0.619508	-0.033292	0.211169
	C2943	C	0.649472	-0.126684	0.199197
	H2944	H	0.634870	-0.285632	0.203677
	H2945	H	0.614110	-0.283702	0.208611
	H2946	H	0.635912	-0.214968	0.291955
	H2947	H	0.615154	-0.212732	0.286749
	H2948	H	0.583297	-0.373620	0.202724
	H2949	H	0.583530	-0.124469	0.297275
	H2950	H	0.499847	-0.123705	0.286226
	H2951	H	0.666740	-0.375851	0.213971
	H2952	H	0.551508	-0.284817	0.213331
	H2953	H	0.530726	-0.283157	0.208126
	H2954	H	0.531806	-0.212282	0.296647
	H2955	H	0.552635	-0.214741	0.291490
	H2956	H	0.531865	0.037573	0.202972
	H2957	H	0.552636	0.035382	0.208011
	H2958	H	0.551418	-0.535608	0.286228
	H2959	H	0.530673	-0.532975	0.291314
	H2960	H	0.614049	-0.533651	0.291135
	H2961	H	0.634835	-0.535912	0.296173
	H2962	H	0.615197	0.037490	0.213273
	H2963	H	0.635956	0.035290	0.208193
	Al2964	Al	0.583319	0.000785	0.250194
	Al2965	Al	0.583357	0.250695	0.250104
	Al2966	Al	0.500001	0.251022	0.166342
	Al2967	Al	0.499992	0.001128	0.166583
	O2968	O	0.595411	0.043811	0.280681
	O2969	O	0.583319	0.125803	0.227521
	O2970	O	0.583337	0.375966	0.272786
	O2971	O	0.654165	0.039079	0.304316
	O2972	O	0.570745	0.039302	0.279065
	O2973	O	0.512014	0.044893	0.302284
	O2974	O	0.571277	0.207708	0.280733
	O2975	O	0.570769	0.289200	0.221250
	O2976	O	0.512057	0.294294	0.197007
	O2977	O	0.595898	0.212389	0.279249
	O2978	O	0.595375	0.293775	0.219528
	O2979	O	0.654028	0.288193	0.195378
	O2980	O	0.512587	0.213296	0.304595
	O2981	O	0.571249	0.457597	0.219488
	O2982	O	0.512611	0.462667	0.195183
	O2983	O	0.654574	0.456909	0.197349
	O2984	O	0.595872	0.462318	0.221114
	O2985	O	0.654617	0.207481	0.302745
	O2986	O	0.499950	0.376622	0.310668
	O2987	O	0.666646	0.124672	0.189466
	C2988	C	0.631197	0.215087	0.291754
	C2989	C	0.636902	0.124367	0.294700
	C2990	C	0.630597	0.034793	0.294243
	C2991	C	0.618866	0.036035	0.291430
	C2992	C	0.613139	0.126764	0.288828
	C2993	C	0.619468	0.216300	0.289008
	C2994	C	0.600597	0.127855	0.282663
	C2995	C	0.649460	0.123496	0.300834
	C2996	C	0.566097	0.123767	0.282549
	C2997	C	0.553526	0.124885	0.288649
	C2998	C	0.547851	0.215781	0.291788
	C2999	C	0.536121	0.217034	0.294656
	C3000	C	0.529782	0.127590	0.294706
	C3001	C	0.535452	0.036520	0.291763
	C3002	C	0.547190	0.035311	0.288888
	C3003	C	0.517217	0.128565	0.300785
	C3004	C	0.566075	0.373637	0.217593
	C3005	C	0.553534	0.374677	0.211275
	C3006	C	0.547846	0.465458	0.208217
	C3007	C	0.536120	0.466752	0.205267
	C3008	C	0.529806	0.377285	0.205034
	C3009	C	0.535497	0.286512	0.208041
	C3010	C	0.547218	0.285259	0.210987
	C3011	C	0.517268	0.378167	0.198815
	C3012	C	0.600531	0.377828	0.217554
	C3013	C	0.613067	0.376567	0.211266
	C3014	C	0.618765	0.285744	0.208584
	C3015	C	0.630480	0.284277	0.205614
	C3016	C	0.636832	0.373850	0.205214
	C3017	C	0.631138	0.464719	0.208125
	C3018	C	0.619420	0.465974	0.211040
	C3019	C	0.649384	0.372801	0.198947
	H3020	H	0.634698	0.213140	0.203592
	H3021	H	0.613934	0.216531	0.208876
	H3022	H	0.636002	0.284731	0.291817
	H3023	H	0.615192	0.286999	0.287032
	H3024	H	0.583184	0.125339	0.203091
	H3025	H	0.583351	0.375826	0.297274
	H3026	H	0.499907	0.376749	0.286193
	H3027	H	0.666587	0.124386	0.213914
	H3028	H	0.551483	0.214455	0.213199
	H3029	H	0.530722	0.216676	0.208022
	H3030	H	0.531885	0.287872	0.296853
	H3031	H	0.552602	0.285758	0.291932
	H3032	H	0.531849	0.537500	0.203206
	H3033	H	0.552617	0.535184	0.208311
	H3034	H	0.551477	-0.035154	0.286744
	H3035	H	0.530684	-0.032977	0.291703
	H3036	H	0.614068	-0.033749	0.291380
	H3037	H	0.634846	-0.036029	0.296309
	H3038	H	0.615189	0.536730	0.213196
	H3039	H	0.635983	0.533892	0.207878
	Al3040	Al	0.583335	-0.498637	0.416380
	Al3041	Al	0.583296	-0.248879	0.416712
	Al3042	Al	0.500023	-0.248504	0.333299
	Al3043	Al	0.500024	-0.498381	0.333548
	O3044	O	0.595434	-0.455758	0.446965
	O3045	O	0.583364	-0.373450	0.393764
	O3046	O	0.583300	-0.123920	0.439393
	O3047	O	0.654073	-0.462051	0.471201
	O3048	O	0.570733	-0.460220	0.445074
	O3049	O	0.512053	-0.455471	0.469188
	O3050	O	0.571326	-0.292179	0.447509
	O3051	O	0.570726	-0.210900	0.387851
	O3052	O	0.512003	-0.205041	0.364121
	O3053	O	0.595918	-0.287180	0.445438
	O3054	O	0.595316	-0.205470	0.385872
	O3055	O	0.654076	-0.211067	0.362579
	O3056	O	0.512597	-0.286838	0.471243
	O3057	O	0.571255	-0.042522	0.386003
	O3058	O	0.512610	-0.036784	0.361907
	O3059	O	0.654581	-0.042622	0.363987
	O3060	O	0.595840	-0.037006	0.387763
	O3061	O	0.654590	-0.293515	0.469684
	O3062	O	0.500005	-0.123943	0.477188
	O3063	O	0.666639	-0.374514	0.356275
	C3064	C	0.631214	-0.284910	0.458499
	C3065	C	0.636858	-0.376098	0.461463
	C3066	C	0.630500	-0.465336	0.460935
	C3067	C	0.618781	-0.463680	0.458019
	C3068	C	0.613129	-0.372653	0.455189
	C3069	C	0.619491	-0.283331	0.455436
	C3070	C	0.600605	-0.371742	0.448831
	C3071	C	0.649389	-0.377393	0.467748
	C3072	C	0.566090	-0.375959	0.448917
	C3073	C	0.553516	-0.374844	0.455097
	C3074	C	0.547822	-0.284053	0.458218
	C3075	C	0.536098	-0.282723	0.461111
	C3076	C	0.529756	-0.372217	0.461152
	C3077	C	0.535432	-0.462928	0.458185
	C3078	C	0.547162	-0.464170	0.455294
	C3079	C	0.517238	-0.371355	0.467507
	C3080	C	0.566066	-0.126350	0.384206
	C3081	C	0.553539	-0.125193	0.377804
	C3082	C	0.547855	-0.034285	0.374793
	C3083	C	0.536126	-0.032896	0.371909
	C3084	C	0.529778	-0.122299	0.371850
	C3085	C	0.535466	-0.212946	0.374835
	C3086	C	0.547179	-0.214547	0.377726
	C3087	C	0.517244	-0.121404	0.365689
	C3088	C	0.600517	-0.121540	0.384177
	C3089	C	0.613064	-0.122563	0.377983
	C3090	C	0.618764	-0.213485	0.375121
	C3091	C	0.630494	-0.214924	0.372251
	C3092	C	0.636841	-0.125469	0.371972
	C3093	C	0.631140	-0.034510	0.374638
	C3094	C	0.619411	-0.033214	0.377512
	C3095	C	0.649403	-0.126499	0.365813
	H3096	H	0.634789	-0.285490	0.370239
	H3097	H	0.613999	-0.283425	0.375309
	H3098	H	0.636019	-0.215308	0.458794
	H3099	H	0.615208	-0.212228	0.453470
	H3100	H	0.583550	-0.372959	0.369330
	H3101	H	0.583186	-0.124140	0.463996
	H3102	H	0.500082	-0.124380	0.452718
	H3103	H	0.666577	-0.374840	0.380771
	H3104	H	0.551390	-0.285457	0.379873
	H3105	H	0.530687	-0.282717	0.374864
	H3106	H	0.531824	-0.211863	0.463305
	H3107	H	0.552609	-0.213983	0.458185
	H3108	H	0.531859	0.037734	0.369680
	H3109	H	0.552659	0.035291	0.374753
	H3110	H	0.551455	-0.534996	0.452977
	H3111	H	0.530668	-0.532801	0.458008
	H3112	H	0.613984	-0.533400	0.458052
	H3113	H	0.634722	-0.536373	0.463123
	H3114	H	0.615117	0.037534	0.379510
	H3115	H	0.635898	0.035207	0.374457
	Al3116	Al	0.583264	0.001141	0.416826
	Al3117	Al	0.583339	0.251544	0.416769
	Al3118	Al	0.500007	0.251351	0.333231
	Al3119	Al	0.499994	0.001361	0.333211
	O3120	O	0.595343	0.044241	0.447656
	O3121	O	0.583249	0.126134	0.394117
	O3122	O	0.583316	0.376526	0.439358
	O3123	O	0.654049	0.038559	0.471201
	O3124	O	0.570712	0.040198	0.445542
	O3125	O	0.511993	0.044748	0.468960
	O3126	O	0.571194	0.208607	0.447144
	O3127	O	0.570771	0.289452	0.387850
	O3128	O	0.512079	0.294803	0.363749
	O3129	O	0.595893	0.212551	0.445467
	O3130	O	0.595376	0.294241	0.386164
	O3131	O	0.654080	0.288884	0.362379
	O3132	O	0.512522	0.212902	0.471354
	O3133	O	0.571314	0.457809	0.385707
	O3134	O	0.512629	0.463186	0.362210
	O3135	O	0.654676	0.457138	0.364368
	O3136	O	0.595905	0.462777	0.387554
	O3137	O	0.654653	0.206925	0.469138
	O3138	O	0.499971	0.376272	0.477400
	O3139	O	0.666739	0.125182	0.356025
	C3140	C	0.631157	0.215056	0.458533
	C3141	C	0.636863	0.124441	0.461182
	C3142	C	0.630536	0.035024	0.460777
	C3143	C	0.618804	0.036247	0.458018
	C3144	C	0.613109	0.126941	0.455356
	C3145	C	0.619433	0.216317	0.455705
	C3146	C	0.600546	0.127990	0.449257
	C3147	C	0.649436	0.123302	0.467440
	C3148	C	0.566016	0.124562	0.448989
	C3149	C	0.553464	0.125440	0.454926
	C3150	C	0.547762	0.216122	0.458064
	C3151	C	0.536033	0.217098	0.460926
	C3152	C	0.529702	0.127674	0.461133
	C3153	C	0.535409	0.036898	0.458050
	C3154	C	0.547131	0.035931	0.455199
	C3155	C	0.517178	0.128659	0.467263
	C3156	C	0.566114	0.373867	0.384090
	C3157	C	0.553578	0.374576	0.377887
	C3158	C	0.547876	0.465291	0.374848
	C3159	C	0.536153	0.466814	0.372012
	C3160	C	0.529803	0.377504	0.371948
	C3161	C	0.535509	0.286708	0.374885
	C3162	C	0.547238	0.285194	0.377756
	C3163	C	0.517283	0.378557	0.365704
	C3164	C	0.600563	0.378198	0.384050
	C3165	C	0.613104	0.376880	0.378032
	C3166	C	0.618819	0.286144	0.375203
	C3167	C	0.630559	0.284871	0.372393
	C3168	C	0.636903	0.374431	0.372175
	C3169	C	0.631180	0.465130	0.374842
	C3170	C	0.619445	0.466357	0.377564
	C3171	C	0.649452	0.373514	0.366029
	H3172	H	0.634819	0.214165	0.370622
	H3173	H	0.614043	0.216273	0.375409
	H3174	H	0.635912	0.284671	0.458483
	H3175	H	0.615202	0.287095	0.453599
	H3176	H	0.583247	0.126218	0.369634
	H3177	H	0.583099	0.376556	0.463687
	H3178	H	0.499931	0.376259	0.452805
	H3179	H	0.666958	0.125125	0.380524
	H3180	H	0.551546	0.214630	0.379893
	H3181	H	0.530715	0.217113	0.374869
	H3182	H	0.531755	0.287810	0.463047
	H3183	H	0.552548	0.285733	0.458266
	H3184	H	0.531883	0.537889	0.369728
	H3185	H	0.552650	0.534989	0.374667
	H3186	H	0.551424	-0.034799	0.453150
	H3187	H	0.530636	-0.032635	0.457969
	H3188	H	0.614053	-0.033435	0.457763
	H3189	H	0.634822	-0.035755	0.462534
	H3190	H	0.615181	0.537194	0.379573
	H3191	H	0.635968	0.534668	0.374925
	Al3192	Al	0.583281	-0.499133	0.583447
	Al3193	Al	0.583298	-0.249118	0.583541
	Al3194	Al	0.500010	-0.248321	0.500096
	Al3195	Al	0.499994	-0.498656	0.500031
	O3196	O	0.595332	-0.456234	0.614139
	O3197	O	0.583320	-0.374210	0.560767
	O3198	O	0.583293	-0.124322	0.606074
	O3199	O	0.654029	-0.462342	0.637985
	O3200	O	0.570721	-0.461356	0.612319
	O3201	O	0.511983	-0.455975	0.635645
	O3202	O	0.571337	-0.292905	0.614501
	O3203	O	0.570667	-0.210780	0.555037
	O3204	O	0.512019	-0.204823	0.530767
	O3205	O	0.595921	-0.287811	0.612260
	O3206	O	0.595340	-0.205766	0.552666
	O3207	O	0.654020	-0.211395	0.528774
	O3208	O	0.512516	-0.287585	0.637726
	O3209	O	0.571303	-0.042262	0.552460
	O3210	O	0.512635	-0.036624	0.528605
	O3211	O	0.654619	-0.043064	0.530740
	O3212	O	0.595899	-0.037510	0.554492
	O3213	O	0.654597	-0.294123	0.635847
	O3214	O	0.499936	-0.123968	0.643978
	O3215	O	0.666657	-0.375285	0.522761
	C3216	C	0.631174	-0.285849	0.625052
	C3217	C	0.636835	-0.376800	0.627965
	C3218	C	0.630487	-0.466174	0.627508
	C3219	C	0.618768	-0.464589	0.624777
	C3220	C	0.613101	-0.373758	0.622145
	C3221	C	0.619461	-0.284352	0.622218
	C3222	C	0.600564	-0.372407	0.615822
	C3223	C	0.649382	-0.378011	0.634171
	C3224	C	0.566079	-0.376594	0.616035
	C3225	C	0.553524	-0.375294	0.621879
	C3226	C	0.547816	-0.284614	0.625004
	C3227	C	0.536074	-0.283654	0.627660
	C3228	C	0.529736	-0.373024	0.627679
	C3229	C	0.535447	-0.463721	0.624662
	C3230	C	0.547174	-0.464758	0.621983
	C3231	C	0.517191	-0.372122	0.633893
	C3232	C	0.566091	-0.126103	0.551022
	C3233	C	0.553545	-0.125014	0.544731
	C3234	C	0.547860	-0.034184	0.541692
	C3235	C	0.536133	-0.032971	0.538714
	C3236	C	0.529804	-0.122498	0.538483
	C3237	C	0.535492	-0.213284	0.541788
	C3238	C	0.547217	-0.214583	0.544733
	C3239	C	0.517252	-0.121267	0.532331
	C3240	C	0.600543	-0.122067	0.550956
	C3241	C	0.613094	-0.123189	0.544617
	C3242	C	0.618804	-0.213985	0.541979
	C3243	C	0.630530	-0.215155	0.539000
	C3244	C	0.636860	-0.125720	0.538696
	C3245	C	0.631147	-0.034858	0.541275
	C3246	C	0.619411	-0.033665	0.544118
	C3247	C	0.649395	-0.126855	0.532336
	H3248	H	0.634811	-0.286024	0.537008
	H3249	H	0.614048	-0.283927	0.542323
	H3250	H	0.635975	-0.216294	0.625325
	H3251	H	0.615188	-0.213416	0.620288
	H3252	H	0.583643	-0.373892	0.536296
	H3253	H	0.583255	-0.123941	0.630588
	H3254	H	0.499888	-0.123392	0.619508
	H3255	H	0.666640	-0.375536	0.547094
	H3256	H	0.551469	-0.285302	0.546997
	H3257	H	0.530680	-0.282878	0.541890
	H3258	H	0.531793	-0.212837	0.629869
	H3259	H	0.552570	-0.214998	0.625242
	H3260	H	0.531865	0.037870	0.536407
	H3261	H	0.552644	0.035279	0.541595
	H3262	H	0.551452	-0.535488	0.620067
	H3263	H	0.530668	-0.533407	0.624513
	H3264	H	0.613960	-0.534281	0.624819
	H3265	H	0.634749	-0.537048	0.629668
	H3266	H	0.615121	0.037192	0.546180
	H3267	H	0.635953	0.034849	0.541073
	Al3268	Al	0.583298	0.000704	0.583179
	Al3269	Al	0.583306	0.250681	0.583289
	Al3270	Al	0.499995	0.251337	0.500209
	Al3271	Al	0.500025	0.001391	0.499826
	O3272	O	0.595387	0.044243	0.613868
	O3273	O	0.583313	0.125813	0.560575
	O3274	O	0.583303	0.375663	0.606107
	O3275	O	0.654128	0.038538	0.637703
	O3276	O	0.570741	0.039142	0.612033
	O3277	O	0.512114	0.044439	0.636274
	O3278	O	0.571301	0.207588	0.614033
	O3279	O	0.570710	0.288979	0.554577
	O3280	O	0.512039	0.294587	0.530829
	O3281	O	0.595943	0.212525	0.612109
	O3282	O	0.595322	0.294521	0.552569
	O3283	O	0.654056	0.288389	0.528810
	O3284	O	0.512591	0.212879	0.638005
	O3285	O	0.571287	0.457269	0.552541
	O3286	O	0.512588	0.463092	0.528986
	O3287	O	0.654577	0.456631	0.530416
	O3288	O	0.595917	0.462876	0.554519
	O3289	O	0.654574	0.206800	0.636409
	O3290	O	0.499930	0.375908	0.643799
	O3291	O	0.666627	0.125128	0.522803
	C3292	C	0.631206	0.214519	0.625267
	C3293	C	0.636875	0.123577	0.628144
	C3294	C	0.630514	0.034229	0.627576
	C3295	C	0.618787	0.035848	0.624737
	C3296	C	0.613112	0.126773	0.622117
	C3297	C	0.619477	0.215997	0.622382
	C3298	C	0.600595	0.128076	0.615791
	C3299	C	0.649415	0.122784	0.634264
	C3300	C	0.566085	0.123714	0.615745
	C3301	C	0.553557	0.124634	0.622015
	C3302	C	0.547880	0.215409	0.625038
	C3303	C	0.536160	0.216933	0.627964
	C3304	C	0.529815	0.127460	0.628184
	C3305	C	0.535483	0.036654	0.625093
	C3306	C	0.547213	0.035151	0.622228
	C3307	C	0.517260	0.128495	0.634421
	C3308	C	0.566080	0.373552	0.550851
	C3309	C	0.553542	0.374734	0.544547
	C3310	C	0.547860	0.465632	0.541511
	C3311	C	0.536129	0.466981	0.538653
	C3312	C	0.529770	0.377648	0.538639
	C3313	C	0.535459	0.286836	0.541689
	C3314	C	0.547195	0.285433	0.544528
	C3315	C	0.517244	0.378584	0.532415
	C3316	C	0.600530	0.378168	0.550671
	C3317	C	0.613094	0.376746	0.544703
	C3318	C	0.618769	0.285750	0.541810
	C3319	C	0.630511	0.284292	0.538964
	C3320	C	0.636859	0.373649	0.538516
	C3321	C	0.631169	0.464628	0.541298
	C3322	C	0.619442	0.466096	0.544120
	C3323	C	0.649393	0.372714	0.532397
	H3324	H	0.634806	0.213594	0.537153
	H3325	H	0.613999	0.216465	0.542042
	H3326	H	0.635972	0.284186	0.625362
	H3327	H	0.615229	0.286869	0.620342
	H3328	H	0.583257	0.125657	0.536240
	H3329	H	0.583193	0.375393	0.630661
	H3330	H	0.500085	0.376247	0.619301
	H3331	H	0.666565	0.124857	0.547251
	H3332	H	0.551455	0.214699	0.546830
	H3333	H	0.530656	0.216803	0.541778
	H3334	H	0.531876	0.287684	0.630205
	H3335	H	0.552659	0.285069	0.625095
	H3336	H	0.531860	0.537907	0.536450
	H3337	H	0.552655	0.535534	0.541582
	H3338	H	0.551481	-0.035663	0.620152
	H3339	H	0.530703	-0.033173	0.625145
	H3340	H	0.613999	-0.033847	0.624568
	H3341	H	0.634802	-0.036708	0.629523
	H3342	H	0.615170	0.536859	0.546139
	H3343	H	0.635949	0.534409	0.541350
	Al3344	Al	0.583325	-0.499138	0.749893
	Al3345	Al	0.583314	-0.248905	0.750038
	Al3346	Al	0.499995	-0.249085	0.666675
	Al3347	Al	0.499947	-0.498973	0.666605
	O3348	O	0.595411	-0.455915	0.780477
	O3349	O	0.583310	-0.373903	0.727228
	O3350	O	0.583325	-0.124119	0.772606
	O3351	O	0.654096	-0.461706	0.804687
	O3352	O	0.570794	-0.460130	0.779116
	O3353	O	0.512026	-0.455053	0.802351
	O3354	O	0.571248	-0.291551	0.780748
	O3355	O	0.570748	-0.210838	0.721077
	O3356	O	0.512049	-0.205937	0.697285
	O3357	O	0.595931	-0.287551	0.778478
	O3358	O	0.595368	-0.205601	0.719320
	O3359	O	0.654100	-0.211913	0.695562
	O3360	O	0.512546	-0.286516	0.804144
	O3361	O	0.571324	-0.042679	0.719022
	O3362	O	0.512597	-0.037491	0.695560
	O3363	O	0.654599	-0.043473	0.697260
	O3364	O	0.595965	-0.037200	0.721314
	O3365	O	0.654593	-0.293088	0.802934
	O3366	O	0.499970	-0.123330	0.810438
	O3367	O	0.666678	-0.375538	0.689472
	C3368	C	0.631240	-0.284935	0.791844
	C3369	C	0.636908	-0.375959	0.794658
	C3370	C	0.630575	-0.465479	0.794087
	C3371	C	0.618833	-0.464048	0.791186
	C3372	C	0.613155	-0.372992	0.788629
	C3373	C	0.619503	-0.283499	0.788931
	C3374	C	0.600594	-0.372057	0.782146
	C3375	C	0.649424	-0.377118	0.800947
	C3376	C	0.566095	-0.375707	0.782644
	C3377	C	0.553535	-0.374819	0.788574
	C3378	C	0.547860	-0.284071	0.791761
	C3379	C	0.536129	-0.282857	0.794574
	C3380	C	0.529788	-0.372170	0.794559
	C3381	C	0.535454	-0.463064	0.791491
	C3382	C	0.547201	-0.464280	0.788661
	C3383	C	0.517229	-0.371218	0.800579
	C3384	C	0.566103	-0.126365	0.717376
	C3385	C	0.553549	-0.125198	0.711135
	C3386	C	0.547849	-0.034519	0.708088
	C3387	C	0.536096	-0.033239	0.705361
	C3388	C	0.529786	-0.122711	0.705359
	C3389	C	0.535503	-0.213358	0.708277
	C3390	C	0.547241	-0.214659	0.711013
	C3391	C	0.517252	-0.121977	0.699114
	C3392	C	0.600578	-0.121875	0.717582
	C3393	C	0.613133	-0.123326	0.711466
	C3394	C	0.618826	-0.214386	0.708726
	C3395	C	0.630544	-0.215828	0.705720
	C3396	C	0.636872	-0.126331	0.705248
	C3397	C	0.631183	-0.035379	0.708044
	C3398	C	0.619458	-0.033914	0.710993
	C3399	C	0.649420	-0.127388	0.699038
	H3400	H	0.634833	-0.286391	0.703683
	H3401	H	0.614055	-0.284128	0.708910
	H3402	H	0.636019	-0.215207	0.792117
	H3403	H	0.615250	-0.212691	0.787035
	H3404	H	0.583334	-0.373544	0.702684
	H3405	H	0.583183	-0.123870	0.797103
	H3406	H	0.500002	-0.123071	0.785850
	H3407	H	0.667009	-0.375741	0.713971
	H3408	H	0.551521	-0.285369	0.713139
	H3409	H	0.530750	-0.283200	0.708384
	H3410	H	0.531860	-0.211845	0.796681
	H3411	H	0.552627	-0.214179	0.791975
	H3412	H	0.531806	0.037720	0.703283
	H3413	H	0.552590	0.035326	0.707893
	H3414	H	0.551470	-0.534904	0.786461
	H3415	H	0.530692	-0.532964	0.791214
	H3416	H	0.614034	-0.533804	0.791051
	H3417	H	0.634816	-0.536520	0.796082
	H3418	H	0.615176	0.036850	0.712907
	H3419	H	0.635966	0.034300	0.707836
	Al3420	Al	0.583323	0.000639	0.749803
	Al3421	Al	0.583251	0.250971	0.750026
	Al3422	Al	0.499984	0.251136	0.666700
	Al3423	Al	0.500044	0.001104	0.666838
	O3424	O	0.595359	0.044069	0.780674
	O3425	O	0.583309	0.125876	0.727230
	O3426	O	0.583303	0.375809	0.772526
	O3427	O	0.654039	0.037958	0.804414
	O3428	O	0.570710	0.039289	0.778624
	O3429	O	0.512069	0.044322	0.802684
	O3430	O	0.571227	0.207814	0.780521
	O3431	O	0.570703	0.289737	0.721260
	O3432	O	0.512018	0.294892	0.697393
	O3433	O	0.595839	0.212538	0.778893
	O3434	O	0.595320	0.294053	0.719377
	O3435	O	0.654081	0.288239	0.695974
	O3436	O	0.512540	0.212791	0.804535
	O3437	O	0.571239	0.458352	0.719519
	O3438	O	0.512551	0.463222	0.695455
	O3439	O	0.654636	0.456640	0.697429
	O3440	O	0.595897	0.462381	0.720942
	O3441	O	0.654567	0.206390	0.802692
	O3442	O	0.499918	0.376121	0.810372
	O3443	O	0.666612	0.124579	0.689523
	C3444	C	0.631146	0.214881	0.791646
	C3445	C	0.636820	0.123762	0.794490
	C3446	C	0.630448	0.034441	0.794081
	C3447	C	0.618724	0.036110	0.791333
	C3448	C	0.613041	0.127127	0.788689
	C3449	C	0.619414	0.216445	0.788885
	C3450	C	0.600513	0.128027	0.782512
	C3451	C	0.649371	0.122514	0.800720
	C3452	C	0.566020	0.123733	0.782020
	C3453	C	0.553492	0.125011	0.788206
	C3454	C	0.547802	0.215870	0.791254
	C3455	C	0.536081	0.217202	0.794270
	C3456	C	0.529743	0.127763	0.794445
	C3457	C	0.535433	0.036937	0.791298
	C3458	C	0.547148	0.035564	0.788349
	C3459	C	0.517230	0.128351	0.800869
	C3460	C	0.566046	0.374473	0.717663
	C3461	C	0.553518	0.375654	0.711475
	C3462	C	0.547842	0.466458	0.708226
	C3463	C	0.536115	0.467730	0.705405
	C3464	C	0.529771	0.378248	0.705392
	C3465	C	0.535457	0.287528	0.708462
	C3466	C	0.547193	0.286137	0.711268
	C3467	C	0.517212	0.378801	0.699170
	C3468	C	0.600519	0.377873	0.717463
	C3469	C	0.613091	0.376847	0.711240
	C3470	C	0.618784	0.286052	0.708583
	C3471	C	0.630531	0.284643	0.705706
	C3472	C	0.636869	0.374108	0.705367
	C3473	C	0.631175	0.464982	0.708010
	C3474	C	0.619440	0.466385	0.710924
	C3475	C	0.649428	0.372915	0.699264
	H3476	H	0.634778	0.213655	0.703794
	H3477	H	0.613995	0.216406	0.708959
	H3478	H	0.635947	0.284581	0.791786
	H3479	H	0.615119	0.287284	0.786969
	H3480	H	0.583347	0.126217	0.702735
	H3481	H	0.583238	0.375674	0.797014
	H3482	H	0.499885	0.376067	0.785872
	H3483	H	0.666748	0.124446	0.713900
	H3484	H	0.551452	0.215329	0.713412
	H3485	H	0.530658	0.217937	0.708659
	H3486	H	0.531824	0.287829	0.796719
	H3487	H	0.552612	0.285383	0.791430
	H3488	H	0.531859	0.538431	0.703060
	H3489	H	0.552634	0.536083	0.708024
	H3490	H	0.551418	-0.035297	0.786213
	H3491	H	0.530653	-0.032824	0.791285
	H3492	H	0.613915	-0.033632	0.791217
	H3493	H	0.634702	-0.036530	0.796049
	H3494	H	0.615198	0.537274	0.712988
	H3495	H	0.635980	0.534706	0.707879
	Al3496	Al	0.583369	-0.499026	0.916695
	Al3497	Al	0.583307	-0.248796	0.916538
	Al3498	Al	0.499988	-0.248702	0.833067
	Al3499	Al	0.500021	-0.498702	0.833058
	O3500	O	0.595406	-0.455529	0.947172
	O3501	O	0.583318	-0.374030	0.893944
	O3502	O	0.583312	-0.124026	0.939183
	O3503	O	0.654168	-0.461332	0.971027
	O3504	O	0.570797	-0.460584	0.945640
	O3505	O	0.512092	-0.455621	0.969157
	O3506	O	0.571333	-0.292185	0.947489
	O3507	O	0.570707	-0.210831	0.887824
	O3508	O	0.512049	-0.205783	0.863680
	O3509	O	0.595962	-0.287242	0.945303
	O3510	O	0.595370	-0.205210	0.885900
	O3511	O	0.654084	-0.211604	0.862250
	O3512	O	0.512598	-0.287136	0.971049
	O3513	O	0.571291	-0.042657	0.885701
	O3514	O	0.512523	-0.037137	0.862460
	O3515	O	0.654635	-0.043086	0.864062
	O3516	O	0.595905	-0.036880	0.887595
	O3517	O	0.654561	-0.292773	0.969573
	O3518	O	0.499977	-0.124022	0.977208
	O3519	O	0.666665	-0.375314	0.856397
	C3520	C	0.631230	-0.285382	0.958072
	C3521	C	0.636910	-0.376283	0.961111
	C3522	C	0.630547	-0.465624	0.960834
	C3523	C	0.618817	-0.463651	0.957944
	C3524	C	0.613146	-0.372669	0.955107
	C3525	C	0.619520	-0.283351	0.955252
	C3526	C	0.600607	-0.371633	0.948830
	C3527	C	0.649426	-0.377083	0.967518
	C3528	C	0.566144	-0.376010	0.949180
	C3529	C	0.553594	-0.375153	0.955275
	C3530	C	0.547891	-0.284305	0.958004
	C3531	C	0.536158	-0.283110	0.960942
	C3532	C	0.529813	-0.372580	0.961168
	C3533	C	0.535499	-0.463296	0.958270
	C3534	C	0.547238	-0.464465	0.955332
	C3535	C	0.517274	-0.371682	0.967509
	C3536	C	0.566063	-0.126236	0.883991
	C3537	C	0.553516	-0.125300	0.877850
	C3538	C	0.547828	-0.034658	0.874678
	C3539	C	0.536095	-0.033147	0.871952
	C3540	C	0.529758	-0.122591	0.871994
	C3541	C	0.535446	-0.213305	0.875075
	C3542	C	0.547177	-0.214660	0.877826
	C3543	C	0.517218	-0.121510	0.865800
	C3544	C	0.600582	-0.121454	0.883926
	C3545	C	0.613122	-0.122379	0.877927
	C3546	C	0.618822	-0.213595	0.875105
	C3547	C	0.630546	-0.215274	0.872257
	C3548	C	0.636895	-0.125893	0.871913
	C3549	C	0.631204	-0.034775	0.874742
	C3550	C	0.619483	-0.033060	0.877591
	C3551	C	0.649418	-0.127074	0.865708
	H3552	H	0.634823	-0.286250	0.870395
	H3553	H	0.614032	-0.283095	0.875278
	H3554	H	0.636080	-0.215651	0.958082
	H3555	H	0.615295	-0.212401	0.953147
	H3556	H	0.583273	-0.374485	0.869399
	H3557	H	0.583432	-0.123889	0.963706
	H3558	H	0.499998	-0.123731	0.952662
	H3559	H	0.666685	-0.375070	0.880825
	H3560	H	0.551441	-0.285308	0.880090
	H3561	H	0.530704	-0.283337	0.875316
	H3562	H	0.531871	-0.212422	0.963025
	H3563	H	0.552635	-0.214569	0.957769
	H3564	H	0.531805	0.037605	0.869818
	H3565	H	0.552602	0.035210	0.874475
	H3566	H	0.551513	-0.535278	0.953092
	H3567	H	0.530735	-0.533106	0.958233
	H3568	H	0.613973	-0.533034	0.957950
	H3569	H	0.634773	-0.536438	0.962934
	H3570	H	0.615188	0.037850	0.879764
	H3571	H	0.636017	0.034888	0.874741
	Al3572	Al	0.583380	0.001097	0.916584
	Al3573	Al	0.583320	0.251076	0.916569
	Al3574	Al	0.499967	0.251483	0.833271
	Al3575	Al	0.500001	0.001368	0.833533
	O3576	O	0.595386	0.044302	0.947435
	O3577	O	0.583323	0.125912	0.893883
	O3578	O	0.583299	0.375982	0.939462
	O3579	O	0.654110	0.038424	0.971074
	O3580	O	0.570747	0.039759	0.945384
	O3581	O	0.512040	0.044566	0.969407
	O3582	O	0.571220	0.208136	0.947185
	O3583	O	0.570728	0.289381	0.887842
	O3584	O	0.512093	0.294871	0.863913
	O3585	O	0.595906	0.212629	0.945389
	O3586	O	0.595318	0.294192	0.886038
	O3587	O	0.654040	0.287822	0.861971
	O3588	O	0.512525	0.212802	0.971065
	O3589	O	0.571295	0.457465	0.886115
	O3590	O	0.512583	0.463030	0.861967
	O3591	O	0.654600	0.456118	0.864103
	O3592	O	0.595935	0.462454	0.887798
	O3593	O	0.654636	0.206886	0.969222
	O3594	O	0.499930	0.375951	0.976924
	O3595	O	0.666670	0.124838	0.856013
	C3596	C	0.631206	0.215105	0.958455
	C3597	C	0.636884	0.124127	0.961222
	C3598	C	0.630534	0.034813	0.960895
	C3599	C	0.618810	0.036321	0.958182
	C3600	C	0.613129	0.127161	0.955374
	C3601	C	0.619461	0.216572	0.955795
	C3602	C	0.600581	0.128200	0.949228
	C3603	C	0.649431	0.122838	0.967391
	C3604	C	0.566067	0.124120	0.948882
	C3605	C	0.553509	0.125134	0.955026
	C3606	C	0.547791	0.215848	0.957934
	C3607	C	0.536058	0.217056	0.960983
	C3608	C	0.529732	0.127495	0.961248
	C3609	C	0.535455	0.036720	0.958352
	C3610	C	0.547173	0.035626	0.955356
	C3611	C	0.517204	0.128451	0.967569
	C3612	C	0.566090	0.373786	0.884197
	C3613	C	0.553565	0.375133	0.877928
	C3614	C	0.547882	0.465879	0.874830
	C3615	C	0.536157	0.467127	0.871958
	C3616	C	0.529810	0.377757	0.871903
	C3617	C	0.535497	0.286986	0.874769
	C3618	C	0.547228	0.285629	0.877605
	C3619	C	0.517266	0.378676	0.865600
	C3620	C	0.600551	0.377726	0.884261
	C3621	C	0.613079	0.376434	0.877970
	C3622	C	0.618760	0.285495	0.875214
	C3623	C	0.630473	0.284013	0.872288
	C3624	C	0.636829	0.373275	0.871880
	C3625	C	0.631150	0.464280	0.874708
	C3626	C	0.619429	0.465738	0.877571
	C3627	C	0.649395	0.372348	0.865674
	H3628	H	0.634737	0.213337	0.870098
	H3629	H	0.613932	0.216126	0.875296
	H3630	H	0.635994	0.284731	0.958302
	H3631	H	0.615150	0.287255	0.953782
	H3632	H	0.583279	0.126371	0.869523
	H3633	H	0.583145	0.375769	0.963984
	H3634	H	0.499814	0.375385	0.952486
	H3635	H	0.666722	0.125257	0.880382
	H3636	H	0.551465	0.214697	0.879858
	H3637	H	0.530677	0.217474	0.874895
	H3638	H	0.531796	0.287907	0.963226
	H3639	H	0.552571	0.285677	0.957859
	H3640	H	0.531905	0.538033	0.869902
	H3641	H	0.552692	0.535380	0.874964
	H3642	H	0.551464	-0.034898	0.953362
	H3643	H	0.530682	-0.033117	0.958607
	H3644	H	0.614103	-0.033555	0.958037
	H3645	H	0.634815	-0.036138	0.962725
	H3646	H	0.615204	0.536673	0.879382
	H3647	H	0.635947	0.533835	0.874429
	Al3648	Al	0.750019	-0.500657	0.083195
	Al3649	Al	0.750022	-0.250617	0.083616
	Al3650	Al	0.666632	-0.250226	0.000131
	Al3651	Al	0.666682	-0.500101	0.000130
	O3652	O	0.762075	-0.457882	0.114021
	O3653	O	0.750022	-0.375419	0.060682
	O3654	O	0.749944	-0.125291	0.106215
	O3655	O	0.820763	-0.463528	0.138047
	O3656	O	0.737428	-0.462207	0.111919
	O3657	O	0.678717	-0.457426	0.136187
	O3658	O	0.737930	-0.293779	0.114154
	O3659	O	0.737404	-0.212258	0.054776
	O3660	O	0.678779	-0.206898	0.030534
	O3661	O	0.762584	-0.289397	0.112221
	O3662	O	0.762046	-0.207439	0.053022
	O3663	O	0.820739	-0.213009	0.028860
	O3664	O	0.679209	-0.288954	0.137846
	O3665	O	0.737940	-0.043729	0.052776
	O3666	O	0.679322	-0.038531	0.028629
	O3667	O	0.821257	-0.044814	0.030518
	O3668	O	0.762582	-0.039209	0.054649
	O3669	O	0.821326	-0.295322	0.136117
	O3670	O	0.666641	-0.125443	0.144007
	O3671	O	0.833334	-0.376033	0.022715
	C3672	C	0.797881	-0.287075	0.125240
	C3673	C	0.803567	-0.377847	0.128073
	C3674	C	0.797198	-0.467020	0.127815
	C3675	C	0.785474	-0.465684	0.124967
	C3676	C	0.779796	-0.374875	0.122023
	C3677	C	0.786142	-0.285578	0.122424
	C3678	C	0.767267	-0.373896	0.115834
	C3679	C	0.816097	-0.379142	0.134378
	C3680	C	0.732749	-0.377800	0.115668
	C3681	C	0.720181	-0.376839	0.121875
	C3682	C	0.714486	-0.286116	0.125278
	C3683	C	0.702758	-0.284842	0.128065
	C3684	C	0.696427	-0.374249	0.127970
	C3685	C	0.702119	-0.465021	0.124619
	C3686	C	0.713844	-0.466306	0.121748
	C3687	C	0.683874	-0.373388	0.134283
	C3688	C	0.732767	-0.127625	0.051077
	C3689	C	0.720248	-0.126921	0.044825
	C3690	C	0.714572	-0.035881	0.041490
	C3691	C	0.702852	-0.034540	0.038430
	C3692	C	0.696513	-0.124200	0.038502
	C3693	C	0.702199	-0.215248	0.041711
	C3694	C	0.713917	-0.216485	0.044759
	C3695	C	0.683979	-0.122973	0.032131
	C3696	C	0.767227	-0.123640	0.051027
	C3697	C	0.779741	-0.124909	0.044566
	C3698	C	0.785442	-0.215755	0.041841
	C3699	C	0.797185	-0.217152	0.038924
	C3700	C	0.803512	-0.127778	0.038390
	C3701	C	0.797821	-0.037052	0.041485
	C3702	C	0.786088	-0.035688	0.044385
	C3703	C	0.816054	-0.128630	0.032355
	H3704	H	0.801492	-0.287963	0.036954
	H3705	H	0.780684	-0.285365	0.042067
	H3706	H	0.802666	-0.217626	0.125214
	H3707	H	0.781866	-0.214700	0.120346
	H3708	H	0.750070	-0.374846	0.036152
	H3709	H	0.749791	-0.125319	0.130611
	H3710	H	0.666543	-0.125867	0.119581
	H3711	H	0.833483	-0.375373	0.047221
	H3712	H	0.718196	-0.287071	0.047274
	H3713	H	0.697444	-0.284994	0.041876
	H3714	H	0.698506	-0.214196	0.130446
	H3715	H	0.719272	-0.216513	0.125591
	H3716	H	0.698547	0.036102	0.036078
	H3717	H	0.719346	0.033857	0.041486
	H3718	H	0.718108	-0.537165	0.119346
	H3719	H	0.697352	-0.534708	0.124421
	H3720	H	0.780692	-0.535396	0.124936
	H3721	H	0.801462	-0.538073	0.129871
	H3722	H	0.781847	0.035198	0.046620
	H3723	H	0.802568	0.032832	0.041584
	Al3724	Al	0.750029	-0.000231	0.083368
	Al3725	Al	0.750009	0.249654	0.083346
	Al3726	Al	0.666632	0.250123	-0.000040
	Al3727	Al	0.666703	-0.000385	-0.000081
	O3728	O	0.762083	0.043008	0.114007
	O3729	O	0.750041	0.124601	0.060683
	O3730	O	0.750042	0.374674	0.105981
	O3731	O	0.820805	0.037438	0.137843
	O3732	O	0.737437	0.038553	0.111990
	O3733	O	0.678676	0.043510	0.135952
	O3734	O	0.737995	0.206802	0.114250
	O3735	O	0.737442	0.287655	0.054377
	O3736	O	0.678732	0.292900	0.030351
	O3737	O	0.762588	0.211327	0.112362
	O3738	O	0.762025	0.292781	0.052487
	O3739	O	0.820789	0.286783	0.028982
	O3740	O	0.679265	0.212038	0.137959
	O3741	O	0.737991	0.456221	0.052418
	O3742	O	0.679261	0.461251	0.028799
	O3743	O	0.821290	0.455209	0.030697
	O3744	O	0.762618	0.461194	0.054356
	O3745	O	0.821296	0.205671	0.136470
	O3746	O	0.666633	0.374821	0.144115
	O3747	O	0.833303	0.123350	0.022853
	C3748	C	0.797895	0.213708	0.125058
	C3749	C	0.803566	0.122797	0.128069
	C3750	C	0.797227	0.033721	0.127789
	C3751	C	0.785484	0.035242	0.124855
	C3752	C	0.779809	0.126115	0.121874
	C3753	C	0.786151	0.215280	0.122169
	C3754	C	0.767253	0.126859	0.115806
	C3755	C	0.816119	0.121938	0.134238
	C3756	C	0.732754	0.122845	0.115814
	C3757	C	0.720198	0.123664	0.121893
	C3758	C	0.714492	0.214298	0.125165
	C3759	C	0.702765	0.215559	0.128049
	C3760	C	0.696411	0.126240	0.127955
	C3761	C	0.702122	0.035412	0.124813
	C3762	C	0.713857	0.034176	0.121883
	C3763	C	0.683882	0.127390	0.134197
	C3764	C	0.732784	0.372317	0.050629
	C3765	C	0.720248	0.373169	0.044410
	C3766	C	0.714549	0.464097	0.041282
	C3767	C	0.702803	0.465278	0.038532
	C3768	C	0.696476	0.375766	0.038540
	C3769	C	0.702175	0.284877	0.041831
	C3770	C	0.713918	0.283572	0.044628
	C3771	C	0.683931	0.376741	0.032377
	C3772	C	0.767245	0.376543	0.050692
	C3773	C	0.779794	0.374984	0.044492
	C3774	C	0.785492	0.284277	0.041730
	C3775	C	0.797213	0.282807	0.038972
	C3776	C	0.803570	0.372018	0.038641
	C3777	C	0.797876	0.462803	0.041557
	C3778	C	0.786147	0.464208	0.044335
	C3779	C	0.816092	0.371330	0.032446
	H3780	H	0.801464	0.211999	0.036901
	H3781	H	0.780700	0.214348	0.041824
	H3782	H	0.802659	0.283425	0.125312
	H3783	H	0.781878	0.286093	0.120480
	H3784	H	0.750151	0.124811	0.036216
	H3785	H	0.750056	0.374838	0.130370
	H3786	H	0.666777	0.374989	0.119595
	H3787	H	0.833383	0.123179	0.047332
	H3788	H	0.718184	0.212730	0.046816
	H3789	H	0.697376	0.214853	0.041958
	H3790	H	0.698490	0.286439	0.130497
	H3791	H	0.719269	0.284131	0.125453
	H3792	H	0.698541	0.536135	0.036165
	H3793	H	0.719322	0.533737	0.040883
	H3794	H	0.718127	-0.036569	0.119601
	H3795	H	0.697347	-0.034396	0.124694
	H3796	H	0.780700	-0.034385	0.125248
	H3797	H	0.801435	-0.037200	0.130199
	H3798	H	0.781880	0.534845	0.046526
	H3799	H	0.802673	0.532415	0.041617
	Al3800	Al	0.749965	-0.500452	0.249929
	Al3801	Al	0.749962	-0.250319	0.250469
	Al3802	Al	0.666656	-0.250198	0.166924
	Al3803	Al	0.666634	-0.500312	0.166767
	O3804	O	0.762037	-0.457337	0.280659
	O3805	O	0.749944	-0.375030	0.227566
	O3806	O	0.749951	-0.125274	0.273038
	O3807	O	0.820778	-0.462877	0.304261
	O3808	O	0.737357	-0.462313	0.278738
	O3809	O	0.678610	-0.455811	0.302418
	O3810	O	0.737911	-0.293861	0.280977
	O3811	O	0.737409	-0.212259	0.221376
	O3812	O	0.678754	-0.206809	0.197371
	O3813	O	0.762514	-0.289050	0.279204
	O3814	O	0.761995	-0.207141	0.219745
	O3815	O	0.820719	-0.213115	0.195521
	O3816	O	0.679224	-0.287518	0.304620
	O3817	O	0.737953	-0.043913	0.219253
	O3818	O	0.679279	-0.038410	0.195230
	O3819	O	0.821247	-0.044782	0.197291
	O3820	O	0.762593	-0.038890	0.221367
	O3821	O	0.821264	-0.294491	0.302780
	O3822	O	0.666657	-0.124705	0.310814
	O3823	O	0.833338	-0.376247	0.189530
	C3824	C	0.797841	-0.286775	0.291836
	C3825	C	0.803526	-0.377523	0.294777
	C3826	C	0.797174	-0.467023	0.294285
	C3827	C	0.785437	-0.465390	0.291559
	C3828	C	0.779753	-0.374587	0.288810
	C3829	C	0.786116	-0.285194	0.289033
	C3830	C	0.767213	-0.373424	0.282736
	C3831	C	0.816060	-0.378504	0.300875
	C3832	C	0.732704	-0.377814	0.282569
	C3833	C	0.720153	-0.376789	0.288651
	C3834	C	0.714514	-0.285764	0.291786
	C3835	C	0.702777	-0.284052	0.294632
	C3836	C	0.696390	-0.373310	0.294476
	C3837	C	0.702033	-0.464260	0.291277
	C3838	C	0.713762	-0.465964	0.288437
	C3839	C	0.683823	-0.372163	0.300930
	C3840	C	0.732776	-0.127740	0.217592
	C3841	C	0.720231	-0.126819	0.211128
	C3842	C	0.714545	-0.036003	0.208045
	C3843	C	0.702807	-0.034620	0.205168
	C3844	C	0.696479	-0.124081	0.205183
	C3845	C	0.702160	-0.214882	0.208358
	C3846	C	0.713892	-0.216233	0.211284
	C3847	C	0.683937	-0.122845	0.198889
	C3848	C	0.767231	-0.123375	0.217865
	C3849	C	0.779753	-0.124806	0.211322
	C3850	C	0.785445	-0.215492	0.208526
	C3851	C	0.797179	-0.216878	0.205561
	C3852	C	0.803521	-0.127387	0.205263
	C3853	C	0.797821	-0.036659	0.208049
	C3854	C	0.786092	-0.035358	0.211019
	C3855	C	0.816075	-0.128679	0.199009
	H3856	H	0.801438	-0.287643	0.203665
	H3857	H	0.780662	-0.285404	0.208835
	H3858	H	0.802664	-0.216968	0.291866
	H3859	H	0.781867	-0.214283	0.286984
	H3860	H	0.749909	-0.374288	0.203107
	H3861	H	0.749904	-0.125156	0.297461
	H3862	H	0.666839	-0.124725	0.286382
	H3863	H	0.833279	-0.376051	0.213911
	H3864	H	0.718144	-0.286990	0.213463
	H3865	H	0.697387	-0.284731	0.208379
	H3866	H	0.698517	-0.213256	0.296886
	H3867	H	0.719312	-0.216268	0.291759
	H3868	H	0.698531	0.036267	0.202755
	H3869	H	0.719348	0.033719	0.207883
	H3870	H	0.717960	-0.536992	0.285784
	H3871	H	0.697206	-0.533735	0.290853
	H3872	H	0.780620	-0.534890	0.291482
	H3873	H	0.801388	-0.537957	0.296184
	H3874	H	0.781854	0.035664	0.213089
	H3875	H	0.802587	0.033051	0.207835
	Al3876	Al	0.749979	-0.000519	0.250125
	Al3877	Al	0.750007	0.249160	0.250183
	Al3878	Al	0.666666	0.249796	0.166799
	Al3879	Al	0.666643	-0.000209	0.166596
	O3880	O	0.762065	0.042713	0.280799
	O3881	O	0.749979	0.124381	0.227316
	O3882	O	0.749933	0.374553	0.272809
	O3883	O	0.820782	0.036718	0.304683
	O3884	O	0.737379	0.037370	0.278854
	O3885	O	0.678712	0.043294	0.302579
	O3886	O	0.737971	0.205754	0.280789
	O3887	O	0.737433	0.287811	0.221244
	O3888	O	0.678734	0.292701	0.197553
	O3889	O	0.762643	0.211190	0.278946
	O3890	O	0.762046	0.292583	0.219584
	O3891	O	0.820736	0.287515	0.195962
	O3892	O	0.679234	0.211878	0.304598
	O3893	O	0.737961	0.456277	0.219206
	O3894	O	0.679225	0.461169	0.195579
	O3895	O	0.821243	0.455675	0.197541
	O3896	O	0.762556	0.460918	0.221319
	O3897	O	0.821337	0.204941	0.302987
	O3898	O	0.666633	0.375600	0.310806
	O3899	O	0.833344	0.123986	0.189751
	C3900	C	0.797889	0.212986	0.291868
	C3901	C	0.803588	0.122085	0.294810
	C3902	C	0.797238	0.032555	0.294340
	C3903	C	0.785515	0.034218	0.291323
	C3904	C	0.779817	0.125414	0.288643
	C3905	C	0.786164	0.214649	0.288919
	C3906	C	0.767269	0.126460	0.282477
	C3907	C	0.816142	0.121177	0.301163
	C3908	C	0.732743	0.121946	0.282559
	C3909	C	0.720182	0.123324	0.288617
	C3910	C	0.714514	0.214180	0.291855
	C3911	C	0.702781	0.215686	0.294781
	C3912	C	0.696422	0.126440	0.294671
	C3913	C	0.702068	0.035376	0.291425
	C3914	C	0.713803	0.033936	0.288596
	C3915	C	0.683878	0.127328	0.300755
	C3916	C	0.732768	0.372357	0.217530
	C3917	C	0.720225	0.373306	0.211295
	C3918	C	0.714537	0.464161	0.208153
	C3919	C	0.702807	0.465405	0.205331
	C3920	C	0.696465	0.375914	0.205310
	C3921	C	0.702160	0.285143	0.208514
	C3922	C	0.713890	0.283807	0.211323
	C3923	C	0.683906	0.376594	0.199147
	C3924	C	0.767217	0.376451	0.217692
	C3925	C	0.779748	0.375466	0.211414
	C3926	C	0.785426	0.284627	0.208508
	C3927	C	0.797151	0.283402	0.205714
	C3928	C	0.803496	0.372742	0.205337
	C3929	C	0.797815	0.463591	0.208344
	C3930	C	0.786085	0.464891	0.211138
	C3931	C	0.816030	0.371981	0.199412
	H3932	H	0.801429	0.212417	0.203721
	H3933	H	0.780652	0.214998	0.208412
	H3934	H	0.802656	0.282654	0.292130
	H3935	H	0.781920	0.285582	0.286906
	H3936	H	0.749964	0.124517	0.202889
	H3937	H	0.749614	0.374668	0.297225
	H3938	H	0.666639	0.375610	0.286141
	H3939	H	0.833424	0.123655	0.214168
	H3940	H	0.718167	0.213196	0.213641
	H3941	H	0.697352	0.215595	0.208696
	H3942	H	0.698530	0.286403	0.297097
	H3943	H	0.719293	0.283816	0.292198
	H3944	H	0.698564	0.536203	0.203233
	H3945	H	0.719313	0.533917	0.208041
	H3946	H	0.718062	-0.037003	0.286412
	H3947	H	0.697292	-0.034341	0.291150
	H3948	H	0.780720	-0.035270	0.291313
	H3949	H	0.801494	-0.038067	0.296481
	H3950	H	0.781795	0.535638	0.213255
	H3951	H	0.802606	0.533430	0.208263
	Al3952	Al	0.749992	-0.500453	0.416912
	Al3953	Al	0.749978	-0.250585	0.416506
	Al3954	Al	0.666656	-0.249424	0.333572
	Al3955	Al	0.666656	-0.499156	0.333395
	O3956	O	0.762009	-0.456968	0.447665
	O3957	O	0.749998	-0.375622	0.394013
	O3958	O	0.749996	-0.125578	0.439242
	O3959	O	0.820742	-0.463555	0.471264
	O3960	O	0.737386	-0.462175	0.445487
	O3961	O	0.678698	-0.456675	0.469242
	O3962	O	0.737941	-0.294008	0.447225
	O3963	O	0.737415	-0.212325	0.387584
	O3964	O	0.678703	-0.206239	0.364103
	O3965	O	0.762600	-0.288638	0.445420
	O3966	O	0.762002	-0.207051	0.385578
	O3967	O	0.820767	-0.212948	0.362353
	O3968	O	0.679252	-0.288324	0.471223
	O3969	O	0.737953	-0.043625	0.386031
	O3970	O	0.679260	-0.037601	0.362166
	O3971	O	0.821242	-0.044692	0.364149
	O3972	O	0.762569	-0.039046	0.387606
	O3973	O	0.821267	-0.295003	0.469577
	O3974	O	0.666670	-0.125007	0.477335
	O3975	O	0.833331	-0.376621	0.356023
	C3976	C	0.797878	-0.286587	0.458669
	C3977	C	0.803535	-0.377675	0.461518
	C3978	C	0.797151	-0.466857	0.461250
	C3979	C	0.785443	-0.465527	0.458285
	C3980	C	0.779784	-0.374556	0.455343
	C3981	C	0.786146	-0.285216	0.455742
	C3982	C	0.767240	-0.373127	0.449110
	C3983	C	0.816075	-0.378948	0.467778
	C3984	C	0.732734	-0.377579	0.448924
	C3985	C	0.720182	-0.376528	0.455061
	C3986	C	0.714505	-0.285625	0.458475
	C3987	C	0.702765	-0.284385	0.461335
	C3988	C	0.696418	-0.373967	0.461129
	C3989	C	0.702101	-0.464783	0.458043
	C3990	C	0.713833	-0.466000	0.455112
	C3991	C	0.683874	-0.372724	0.467464
	C3992	C	0.732745	-0.127655	0.384165
	C3993	C	0.720209	-0.126567	0.377995
	C3994	C	0.714532	-0.035546	0.374680
	C3995	C	0.702818	-0.033780	0.371813
	C3996	C	0.696448	-0.123173	0.372064
	C3997	C	0.702117	-0.214142	0.375248
	C3998	C	0.713832	-0.215926	0.378057
	C3999	C	0.683922	-0.122225	0.365921
	C4000	C	0.767257	-0.123489	0.384058
	C4001	C	0.779791	-0.124859	0.378003
	C4002	C	0.785497	-0.215503	0.375223
	C4003	C	0.797229	-0.216782	0.372469
	C4004	C	0.803572	-0.127532	0.372351
	C4005	C	0.797872	-0.036736	0.374977
	C4006	C	0.786125	-0.035401	0.377711
	C4007	C	0.816087	-0.128527	0.365917
	H4008	H	0.801440	-0.287799	0.370449
	H4009	H	0.780728	-0.285242	0.375357
	H4010	H	0.802687	-0.216970	0.458922
	H4011	H	0.781871	-0.214194	0.453683
	H4012	H	0.749976	-0.375704	0.369435
	H4013	H	0.750134	-0.125959	0.463696
	H4014	H	0.666819	-0.125088	0.452956
	H4015	H	0.833462	-0.376699	0.380441
	H4016	H	0.718088	-0.286876	0.380314
	H4017	H	0.697317	-0.283907	0.375345
	H4018	H	0.698498	-0.213696	0.463780
	H4019	H	0.719311	-0.215896	0.458743
	H4020	H	0.698538	0.037115	0.369315
	H4021	H	0.719357	0.033921	0.374281
	H4022	H	0.718084	-0.536872	0.452833
	H4023	H	0.697325	-0.534726	0.458035
	H4024	H	0.780665	-0.535248	0.458284
	H4025	H	0.801412	-0.537813	0.463482
	H4026	H	0.781883	0.035458	0.379753
	H4027	H	0.802675	0.033091	0.374840
	Al4028	Al	0.750007	-0.000532	0.416559
	Al4029	Al	0.749981	0.249612	0.416754
	Al4030	Al	0.666646	0.250556	0.333425
	Al4031	Al	0.666650	0.000258	0.333250
	O4032	O	0.762101	0.042655	0.447184
	O4033	O	0.750053	0.124381	0.393899
	O4034	O	0.749963	0.374513	0.439537
	O4035	O	0.820713	0.036781	0.471314
	O4036	O	0.737400	0.037830	0.445154
	O4037	O	0.678750	0.043054	0.469428
	O4038	O	0.738006	0.206074	0.447552
	O4039	O	0.737387	0.287737	0.388154
	O4040	O	0.678716	0.294208	0.364170
	O4041	O	0.762581	0.211139	0.445479
	O4042	O	0.762064	0.292603	0.386137
	O4043	O	0.820719	0.287574	0.362252
	O4044	O	0.679246	0.211638	0.471224
	O4045	O	0.738003	0.455887	0.385964
	O4046	O	0.679314	0.462677	0.361774
	O4047	O	0.821263	0.455891	0.364058
	O4048	O	0.762539	0.460785	0.387887
	O4049	O	0.821309	0.205215	0.469515
	O4050	O	0.666635	0.374827	0.477321
	O4051	O	0.833391	0.123587	0.356291
	C4052	C	0.797893	0.213688	0.458380
	C4053	C	0.803573	0.122693	0.461375
	C4054	C	0.797224	0.033236	0.461142
	C4055	C	0.785496	0.034838	0.458213
	C4056	C	0.779818	0.125906	0.455184
	C4057	C	0.786172	0.215265	0.455502
	C4058	C	0.767254	0.126678	0.449036
	C4059	C	0.816115	0.121346	0.467584
	C4060	C	0.732764	0.122454	0.449016
	C4061	C	0.720220	0.123516	0.455103
	C4062	C	0.714538	0.214413	0.458483
	C4063	C	0.702806	0.215718	0.461369
	C4064	C	0.696461	0.126204	0.461240
	C4065	C	0.702134	0.035392	0.458027
	C4066	C	0.713872	0.034088	0.455139
	C4067	C	0.683933	0.127135	0.467615
	C4068	C	0.732766	0.372131	0.384339
	C4069	C	0.720223	0.373569	0.378058
	C4070	C	0.714577	0.464484	0.374477
	C4071	C	0.702846	0.466132	0.371593
	C4072	C	0.696475	0.376846	0.371932
	C4073	C	0.702120	0.285880	0.375172
	C4074	C	0.713851	0.284195	0.378132
	C4075	C	0.683922	0.378070	0.365750
	C4076	C	0.767207	0.376425	0.384198
	C4077	C	0.779759	0.375683	0.377964
	C4078	C	0.785465	0.284711	0.375150
	C4079	C	0.797185	0.283479	0.372282
	C4080	C	0.803508	0.372859	0.371907
	C4081	C	0.797806	0.463729	0.374707
	C4082	C	0.786086	0.464963	0.377535
	C4083	C	0.816067	0.372049	0.365935
	H4084	H	0.801490	0.212921	0.370325
	H4085	H	0.780746	0.214712	0.375126
	H4086	H	0.802691	0.283404	0.458377
	H4087	H	0.781914	0.286149	0.453437
	H4088	H	0.750075	0.124949	0.369586
	H4089	H	0.749991	0.374367	0.464022
	H4090	H	0.666420	0.374676	0.452879
	H4091	H	0.833480	0.123431	0.380734
	H4092	H	0.718082	0.213190	0.380502
	H4093	H	0.697270	0.216110	0.375394
	H4094	H	0.698547	0.286383	0.463774
	H4095	H	0.719322	0.284156	0.458751
	H4096	H	0.698625	0.537295	0.369101
	H4097	H	0.719380	0.534095	0.373994
	H4098	H	0.718157	-0.036787	0.452840
	H4099	H	0.697368	-0.034157	0.457880
	H4100	H	0.780653	-0.034624	0.458301
	H4101	H	0.801495	-0.037476	0.463330
	H4102	H	0.781790	0.535537	0.379436
	H4103	H	0.802552	0.533601	0.374647
	Al4104	Al	0.750000	-0.500870	0.583514
	Al4105	Al	0.750019	-0.250675	0.583546
	Al4106	Al	0.666640	-0.250006	0.500129
	Al4107	Al	0.666662	-0.499911	0.499999
	O4108	O	0.762062	-0.457536	0.614059
	O4109	O	0.749996	-0.376036	0.560750
	O4110	O	0.750022	-0.125594	0.606195
	O4111	O	0.820776	-0.463285	0.637909
	O4112	O	0.737433	-0.462397	0.612479
	O4113	O	0.678761	-0.457496	0.635886
	O4114	O	0.737910	-0.293891	0.613839
	O4115	O	0.737392	-0.212121	0.554879
	O4116	O	0.678696	-0.207179	0.530766
	O4117	O	0.762586	-0.288911	0.612535
	O4118	O	0.762110	-0.207563	0.552955
	O4119	O	0.820727	-0.213810	0.528945
	O4120	O	0.679242	-0.289130	0.637937
	O4121	O	0.737989	-0.043820	0.552586
	O4122	O	0.679231	-0.038534	0.528926
	O4123	O	0.821337	-0.045338	0.531084
	O4124	O	0.762594	-0.038788	0.554718
	O4125	O	0.821360	-0.294948	0.636132
	O4126	O	0.666729	-0.125369	0.643948
	O4127	O	0.833295	-0.376994	0.522841
	C4128	C	0.797892	-0.286580	0.625082
	C4129	C	0.803595	-0.377417	0.627979
	C4130	C	0.797226	-0.466744	0.627795
	C4131	C	0.785497	-0.465246	0.624858
	C4132	C	0.779816	-0.374514	0.621953
	C4133	C	0.786159	-0.285128	0.622139
	C4134	C	0.767274	-0.373544	0.615779
	C4135	C	0.816139	-0.378673	0.634325
	C4136	C	0.732740	-0.377867	0.615714
	C4137	C	0.720214	-0.376930	0.621949
	C4138	C	0.714530	-0.285937	0.625253
	C4139	C	0.702805	-0.284587	0.628127
	C4140	C	0.696459	-0.374090	0.627892
	C4141	C	0.702129	-0.465099	0.624814
	C4142	C	0.713852	-0.466391	0.621981
	C4143	C	0.683921	-0.373508	0.634251
	C4144	C	0.732752	-0.127721	0.550936
	C4145	C	0.720219	-0.126523	0.544768
	C4146	C	0.714523	-0.035740	0.541319
	C4147	C	0.702797	-0.034436	0.538489
	C4148	C	0.696449	-0.123867	0.538673
	C4149	C	0.702148	-0.214862	0.541801
	C4150	C	0.713886	-0.216124	0.544712
	C4151	C	0.683903	-0.123126	0.532458
	C4152	C	0.767261	-0.123375	0.551048
	C4153	C	0.779793	-0.124576	0.544676
	C4154	C	0.785455	-0.215648	0.541732
	C4155	C	0.797186	-0.216943	0.538943
	C4156	C	0.803551	-0.127453	0.538644
	C4157	C	0.797890	-0.036435	0.541794
	C4158	C	0.786166	-0.035091	0.544601
	C4159	C	0.816104	-0.129074	0.532683
	H4160	H	0.801475	-0.287729	0.536750
	H4161	H	0.780674	-0.285321	0.541634
	H4162	H	0.802701	-0.216908	0.625346
	H4163	H	0.781878	-0.214360	0.619947
	H4164	H	0.749986	-0.376279	0.536337
	H4165	H	0.750064	-0.125451	0.630618
	H4166	H	0.666928	-0.124618	0.619478
	H4167	H	0.833138	-0.376988	0.547332
	H4168	H	0.718174	-0.287024	0.547140
	H4169	H	0.697343	-0.284755	0.542130
	H4170	H	0.698527	-0.213976	0.630464
	H4171	H	0.719331	-0.216334	0.625435
	H4172	H	0.698523	0.036560	0.536132
	H4173	H	0.719324	0.034020	0.541116
	H4174	H	0.718096	-0.537184	0.619822
	H4175	H	0.697327	-0.534901	0.624770
	H4176	H	0.780705	-0.534855	0.624810
	H4177	H	0.801462	-0.537767	0.629951
	H4178	H	0.781894	0.035827	0.546710
	H4179	H	0.802703	0.033189	0.541918
	Al4180	Al	0.749957	-0.000653	0.583390
	Al4181	Al	0.750005	0.249308	0.583917
	Al4182	Al	0.666679	0.249983	0.499985
	Al4183	Al	0.666634	0.000039	0.500049
	O4184	O	0.761976	0.042423	0.614443
	O4185	O	0.749967	0.124430	0.560940
	O4186	O	0.750000	0.374338	0.606428
	O4187	O	0.820693	0.036843	0.637982
	O4188	O	0.737321	0.037502	0.612061
	O4189	O	0.678608	0.042803	0.635738
	O4190	O	0.737816	0.206042	0.613998
	O4191	O	0.737491	0.287960	0.554622
	O4192	O	0.678735	0.293067	0.530671
	O4193	O	0.762560	0.210554	0.612773
	O4194	O	0.762079	0.292205	0.553067
	O4195	O	0.820758	0.286734	0.528858
	O4196	O	0.679190	0.211360	0.638001
	O4197	O	0.737964	0.456497	0.552915
	O4198	O	0.679268	0.461385	0.528756
	O4199	O	0.821275	0.454905	0.530750
	O4200	O	0.762584	0.460665	0.554562
	O4201	O	0.821313	0.205057	0.635992
	O4202	O	0.666676	0.374711	0.643973
	O4203	O	0.833331	0.123066	0.522850
	C4204	C	0.797814	0.213178	0.625040
	C4205	C	0.803530	0.122419	0.628021
	C4206	C	0.797206	0.033002	0.627799
	C4207	C	0.785491	0.034480	0.624970
	C4208	C	0.779764	0.125198	0.622215
	C4209	C	0.786101	0.214561	0.622306
	C4210	C	0.767203	0.125896	0.616227
	C4211	C	0.816081	0.121385	0.634274
	C4212	C	0.732649	0.121890	0.615595
	C4213	C	0.720110	0.122944	0.621873
	C4214	C	0.714423	0.213824	0.625099
	C4215	C	0.702705	0.214996	0.628009
	C4216	C	0.696364	0.125524	0.627917
	C4217	C	0.702039	0.034587	0.624835
	C4218	C	0.713762	0.033379	0.621917
	C4219	C	0.683815	0.126670	0.634024
	C4220	C	0.732797	0.372333	0.551090
	C4221	C	0.720253	0.373118	0.544678
	C4222	C	0.714555	0.464036	0.541487
	C4223	C	0.702827	0.465449	0.538505
	C4224	C	0.696469	0.376048	0.538584
	C4225	C	0.702165	0.285264	0.541928
	C4226	C	0.713899	0.283722	0.544801
	C4227	C	0.683921	0.376882	0.532450
	C4228	C	0.767258	0.376067	0.551073
	C4229	C	0.779806	0.375286	0.544843
	C4230	C	0.785478	0.284414	0.541904
	C4231	C	0.797208	0.283054	0.539044
	C4232	C	0.803550	0.372363	0.538794
	C4233	C	0.797868	0.463297	0.541727
	C4234	C	0.786144	0.464720	0.544590
	C4235	C	0.816077	0.371108	0.532460
	H4236	H	0.801485	0.212288	0.537014
	H4237	H	0.780682	0.214734	0.541992
	H4238	H	0.802606	0.282928	0.624990
	H4239	H	0.781794	0.285270	0.620249
	H4240	H	0.749930	0.124807	0.536544
	H4241	H	0.749900	0.375117	0.630967
	H4242	H	0.666801	0.374722	0.619565
	H4243	H	0.833322	0.123269	0.547448
	H4244	H	0.718160	0.213096	0.546965
	H4245	H	0.697380	0.215637	0.542019
	H4246	H	0.698442	0.285635	0.630354
	H4247	H	0.719214	0.283687	0.625333
	H4248	H	0.698575	0.536332	0.535963
	H4249	H	0.719380	0.533512	0.541108
	H4250	H	0.718042	-0.037440	0.619746
	H4251	H	0.697259	-0.035119	0.624702
	H4252	H	0.780713	-0.034935	0.624962
	H4253	H	0.801516	-0.037840	0.629868
	H4254	H	0.781874	0.535427	0.546730
	H4255	H	0.802642	0.533096	0.541860
	Al4256	Al	0.749994	-0.500747	0.749816
	Al4257	Al	0.750038	-0.250577	0.750009
	Al4258	Al	0.666629	-0.250892	0.666563
	Al4259	Al	0.666667	-0.500560	0.666701
	O4260	O	0.762038	-0.457504	0.780570
	O4261	O	0.749953	-0.375564	0.727227
	O4262	O	0.749894	-0.125864	0.772873
	O4263	O	0.820740	-0.462804	0.804692
	O4264	O	0.737365	-0.462736	0.778739
	O4265	O	0.678711	-0.457248	0.802879
	O4266	O	0.737908	-0.294150	0.780493
	O4267	O	0.737424	-0.212134	0.721175
	O4268	O	0.678748	-0.207496	0.697200
	O4269	O	0.762610	-0.288758	0.778830
	O4270	O	0.761978	-0.206696	0.719244
	O4271	O	0.820721	-0.212542	0.695466
	O4272	O	0.679252	-0.289001	0.804782
	O4273	O	0.737904	-0.043644	0.719691
	O4274	O	0.679214	-0.038948	0.695363
	O4275	O	0.821228	-0.044194	0.697281
	O4276	O	0.762546	-0.038514	0.721277
	O4277	O	0.821253	-0.294188	0.802682
	O4278	O	0.666640	-0.125232	0.810569
	O4279	O	0.833424	-0.376285	0.689799
	C4280	C	0.797811	-0.286551	0.791965
	C4281	C	0.803521	-0.377466	0.794878
	C4282	C	0.797204	-0.466980	0.794385
	C4283	C	0.785478	-0.465606	0.791372
	C4284	C	0.779773	-0.374708	0.788777
	C4285	C	0.786097	-0.285089	0.789006
	C4286	C	0.767247	-0.373535	0.782293
	C4287	C	0.816065	-0.378309	0.801012
	C4288	C	0.732729	-0.378114	0.782239
	C4289	C	0.720194	-0.377175	0.788562
	C4290	C	0.714503	-0.286264	0.791725
	C4291	C	0.702777	-0.284786	0.794768
	C4292	C	0.696435	-0.374271	0.794715
	C4293	C	0.702138	-0.465228	0.791599
	C4294	C	0.713856	-0.466574	0.788590
	C4295	C	0.683904	-0.373354	0.801152
	C4296	C	0.732740	-0.127767	0.717736
	C4297	C	0.720197	-0.126886	0.711341
	C4298	C	0.714521	-0.036036	0.708303
	C4299	C	0.702792	-0.034880	0.705380
	C4300	C	0.696437	-0.124280	0.705232
	C4301	C	0.702127	-0.215178	0.708289
	C4302	C	0.713838	-0.216325	0.711268
	C4303	C	0.683891	-0.123394	0.698966
	C4304	C	0.767177	-0.122917	0.717455
	C4305	C	0.779736	-0.124012	0.711350
	C4306	C	0.785395	-0.214963	0.708329
	C4307	C	0.797135	-0.216714	0.705511
	C4308	C	0.803483	-0.127286	0.705218
	C4309	C	0.797822	-0.036411	0.708281
	C4310	C	0.786098	-0.034683	0.711164
	C4311	C	0.816044	-0.128183	0.699183
	H4312	H	0.801380	-0.287505	0.703362
	H4313	H	0.780583	-0.284423	0.708040
	H4314	H	0.802601	-0.216836	0.792547
	H4315	H	0.781810	-0.214393	0.787221
	H4316	H	0.749660	-0.375573	0.702785
	H4317	H	0.749566	-0.126264	0.797313
	H4318	H	0.666538	-0.125499	0.786202
	H4319	H	0.833702	-0.376412	0.714350
	H4320	H	0.718138	-0.287013	0.713382
	H4321	H	0.697388	-0.285083	0.708242
	H4322	H	0.698484	-0.214038	0.797132
	H4323	H	0.719286	-0.216399	0.791755
	H4324	H	0.698493	0.035806	0.703037
	H4325	H	0.719310	0.033646	0.708180
	H4326	H	0.718132	-0.537028	0.786272
	H4327	H	0.697379	-0.535269	0.791572
	H4328	H	0.780681	-0.535188	0.791439
	H4329	H	0.801456	-0.537702	0.796709
	H4330	H	0.781888	0.036125	0.713140
	H4331	H	0.802644	0.032968	0.708295
	Al4332	Al	0.749997	-0.000567	0.750209
	Al4333	Al	0.750014	0.249258	0.750347
	Al4334	Al	0.666632	0.249979	0.666934
	Al4335	Al	0.666625	-0.000311	0.666632
	O4336	O	0.762131	0.042958	0.780461
	O4337	O	0.749977	0.124480	0.727546
	O4338	O	0.749902	0.374546	0.772667
	O4339	O	0.820821	0.037215	0.804190
	O4340	O	0.737370	0.037420	0.779140
	O4341	O	0.678660	0.043047	0.802434
	O4342	O	0.737961	0.205645	0.781015
	O4343	O	0.737408	0.287334	0.721538
	O4344	O	0.678699	0.293362	0.697326
	O4345	O	0.762567	0.211275	0.779221
	O4346	O	0.762050	0.292696	0.719522
	O4347	O	0.820773	0.287245	0.695484
	O4348	O	0.679200	0.211334	0.804297
	O4349	O	0.737937	0.456008	0.719154
	O4350	O	0.679290	0.461791	0.695315
	O4351	O	0.821294	0.455671	0.697544
	O4352	O	0.762560	0.461149	0.721112
	O4353	O	0.821337	0.205632	0.802642
	O4354	O	0.666700	0.374986	0.810610
	O4355	O	0.833387	0.123708	0.689463
	C4356	C	0.797901	0.213817	0.791736
	C4357	C	0.803573	0.122915	0.794674
	C4358	C	0.797237	0.033641	0.794293
	C4359	C	0.785498	0.035019	0.791436
	C4360	C	0.779818	0.126017	0.788656
	C4361	C	0.786156	0.215432	0.788906
	C4362	C	0.767270	0.126955	0.782630
	C4363	C	0.816127	0.121768	0.800875
	C4364	C	0.732743	0.122022	0.782683
	C4365	C	0.720163	0.123256	0.788583
	C4366	C	0.714476	0.214025	0.791684
	C4367	C	0.702754	0.215426	0.794489
	C4368	C	0.696403	0.125956	0.794428
	C4369	C	0.702100	0.035263	0.791282
	C4370	C	0.713826	0.033790	0.788440
	C4371	C	0.683843	0.126890	0.800626
	C4372	C	0.732752	0.371884	0.717541
	C4373	C	0.720221	0.372760	0.711275
	C4374	C	0.714567	0.463585	0.708037
	C4375	C	0.702834	0.465143	0.705207
	C4376	C	0.696471	0.375791	0.705140
	C4377	C	0.702124	0.284815	0.708336
	C4378	C	0.713866	0.283300	0.711203
	C4379	C	0.683927	0.377140	0.699045
	C4380	C	0.767243	0.376614	0.717569
	C4381	C	0.779777	0.375530	0.711318
	C4382	C	0.785468	0.284640	0.708494
	C4383	C	0.797200	0.283104	0.705630
	C4384	C	0.803553	0.372288	0.705340
	C4385	C	0.797853	0.463245	0.708235
	C4386	C	0.786133	0.464930	0.711069
	C4387	C	0.816113	0.371595	0.699120
	H4388	H	0.801475	0.212337	0.703752
	H4389	H	0.780674	0.214761	0.708679
	H4390	H	0.802679	0.283742	0.791455
	H4391	H	0.781878	0.286405	0.786650
	H4392	H	0.749948	0.124792	0.703060
	H4393	H	0.749664	0.375152	0.797065
	H4394	H	0.666970	0.375523	0.786143
	H4395	H	0.833672	0.123844	0.713927
	H4396	H	0.718121	0.212373	0.713455
	H4397	H	0.697297	0.215257	0.708506
	H4398	H	0.698499	0.286262	0.796603
	H4399	H	0.719265	0.283663	0.791766
	H4400	H	0.698608	0.536137	0.702881
	H4401	H	0.719363	0.533295	0.707857
	H4402	H	0.718082	-0.036842	0.786081
	H4403	H	0.697293	-0.034313	0.790932
	H4404	H	0.780753	-0.034839	0.791094
	H4405	H	0.801501	-0.037282	0.795990
	H4406	H	0.781868	0.535609	0.713262
	H4407	H	0.802646	0.532766	0.708391
	Al4408	Al	0.749964	-0.500806	0.916623
	Al4409	Al	0.750021	-0.250334	0.916702
	Al4410	Al	0.666664	-0.250474	0.833522
	Al4411	Al	0.666657	-0.500238	0.833377
	O4412	O	0.762013	-0.457843	0.947357
	O4413	O	0.750013	-0.375536	0.893929
	O4414	O	0.749982	-0.125420	0.939476
	O4415	O	0.820757	-0.463229	0.971317
	O4416	O	0.737394	-0.462318	0.945189
	O4417	O	0.678721	-0.457431	0.969271
	O4418	O	0.737997	-0.294044	0.947480
	O4419	O	0.737392	-0.212174	0.888007
	O4420	O	0.678717	-0.206498	0.864041
	O4421	O	0.762528	-0.289334	0.945710
	O4422	O	0.762102	-0.206869	0.886174
	O4423	O	0.820732	-0.212535	0.861983
	O4424	O	0.679230	-0.288987	0.971444
	O4425	O	0.737948	-0.044006	0.886080
	O4426	O	0.679291	-0.038119	0.861839
	O4427	O	0.821305	-0.044238	0.863884
	O4428	O	0.762621	-0.038593	0.888041
	O4429	O	0.821250	-0.294596	0.969248
	O4430	O	0.666678	-0.125134	0.977256
	O4431	O	0.833370	-0.376026	0.855944
	C4432	C	0.797828	-0.287106	0.958551
	C4433	C	0.803535	-0.377942	0.961306
	C4434	C	0.797190	-0.467326	0.961100
	C4435	C	0.785456	-0.465717	0.958265
	C4436	C	0.779758	-0.374885	0.955349
	C4437	C	0.786092	-0.285475	0.955712
	C4438	C	0.767192	-0.374053	0.949099
	C4439	C	0.816080	-0.378773	0.967467
	C4440	C	0.732747	-0.377889	0.948956
	C4441	C	0.720195	-0.376652	0.955044
	C4442	C	0.714494	-0.285911	0.958178
	C4443	C	0.702764	-0.284848	0.961079
	C4444	C	0.696433	-0.374283	0.961208
	C4445	C	0.702131	-0.465217	0.958160
	C4446	C	0.713869	-0.466217	0.955286
	C4447	C	0.683911	-0.373469	0.967620
	C4448	C	0.732755	-0.127735	0.884235
	C4449	C	0.720220	-0.126555	0.877974
	C4450	C	0.714540	-0.035543	0.874735
	C4451	C	0.702812	-0.034413	0.871839
	C4452	C	0.696479	-0.123930	0.871790
	C4453	C	0.702155	-0.214825	0.874929
	C4454	C	0.713885	-0.216011	0.877864
	C4455	C	0.683931	-0.122712	0.865544
	C4456	C	0.767292	-0.122992	0.884231
	C4457	C	0.779812	-0.124042	0.877991
	C4458	C	0.785507	-0.214858	0.875385
	C4459	C	0.797243	-0.216108	0.872535
	C4460	C	0.803561	-0.126790	0.871910
	C4461	C	0.797867	-0.035934	0.874530
	C4462	C	0.786131	-0.034595	0.877408
	C4463	C	0.816098	-0.127979	0.865659
	H4464	H	0.801533	-0.286848	0.870815
	H4465	H	0.780777	-0.284617	0.875649
	H4466	H	0.802622	-0.217575	0.958914
	H4467	H	0.781837	-0.214351	0.953905
	H4468	H	0.750094	-0.375403	0.869492
	H4469	H	0.749879	-0.125833	0.964113
	H4470	H	0.666630	-0.125387	0.952910
	H4471	H	0.833491	-0.375863	0.880364
	H4472	H	0.718136	-0.287009	0.880152
	H4473	H	0.697359	-0.284381	0.875148
	H4474	H	0.698479	-0.214044	0.963209
	H4475	H	0.719253	-0.215942	0.958208
	H4476	H	0.698534	0.036301	0.869749
	H4477	H	0.719300	0.034196	0.874713
	H4478	H	0.718179	-0.536910	0.953069
	H4479	H	0.697343	-0.534973	0.957992
	H4480	H	0.780626	-0.535113	0.958304
	H4481	H	0.801423	-0.538283	0.963338
	H4482	H	0.781841	0.036236	0.879313
	H4483	H	0.802645	0.033763	0.874343
	Al4484	Al	0.750026	-0.000629	0.916846
	Al4485	Al	0.750033	0.249276	0.916813
	Al4486	Al	0.666633	0.249486	0.833150
	Al4487	Al	0.666631	-0.000109	0.833205
	O4488	O	0.762067	0.042603	0.947810
	O4489	O	0.750062	0.124128	0.894072
	O4490	O	0.749974	0.374229	0.939444
	O4491	O	0.820801	0.036951	0.971036
	O4492	O	0.737420	0.037342	0.945497
	O4493	O	0.678680	0.043156	0.969215
	O4494	O	0.737968	0.205482	0.947387
	O4495	O	0.737384	0.286945	0.888262
	O4496	O	0.678705	0.292754	0.863864
	O4497	O	0.762687	0.210958	0.945335
	O4498	O	0.762031	0.292630	0.885961
	O4499	O	0.820732	0.287242	0.862181
	O4500	O	0.679192	0.211518	0.970984
	O4501	O	0.737927	0.455540	0.886082
	O4502	O	0.679310	0.461205	0.861991
	O4503	O	0.821197	0.455712	0.863840
	O4504	O	0.762523	0.461049	0.887724
	O4505	O	0.821328	0.205472	0.969429
	O4506	O	0.666633	0.375110	0.977383
	O4507	O	0.833366	0.123870	0.855986
	C4508	C	0.797915	0.213505	0.958678
	C4509	C	0.803605	0.122522	0.961189
	C4510	C	0.797271	0.033144	0.960864
	C4511	C	0.785537	0.034490	0.958057
	C4512	C	0.779859	0.125401	0.955251
	C4513	C	0.786195	0.214842	0.955778
	C4514	C	0.767314	0.126418	0.949157
	C4515	C	0.816140	0.121627	0.967491
	C4516	C	0.732730	0.121962	0.949036
	C4517	C	0.720184	0.122804	0.955208
	C4518	C	0.714527	0.213738	0.958560
	C4519	C	0.702776	0.215181	0.961384
	C4520	C	0.696406	0.125822	0.961261
	C4521	C	0.702070	0.034900	0.958021
	C4522	C	0.713804	0.033580	0.955184
	C4523	C	0.683854	0.126982	0.967415
	C4524	C	0.732719	0.371452	0.884422
	C4525	C	0.720198	0.372515	0.878085
	C4526	C	0.714525	0.463500	0.874780
	C4527	C	0.702799	0.464948	0.871839
	C4528	C	0.696461	0.375474	0.871824
	C4529	C	0.702126	0.284463	0.875036
	C4530	C	0.713847	0.283043	0.877969
	C4531	C	0.683929	0.376520	0.865715
	C4532	C	0.767205	0.376639	0.884206
	C4533	C	0.779744	0.375382	0.878068
	C4534	C	0.785418	0.284408	0.875260
	C4535	C	0.797153	0.283194	0.872299
	C4536	C	0.803492	0.372660	0.871989
	C4537	C	0.797815	0.463618	0.874801
	C4538	C	0.786090	0.464770	0.877609
	C4539	C	0.816046	0.371589	0.865656
	H4540	H	0.801442	0.212602	0.870433
	H4541	H	0.780640	0.214665	0.875574
	H4542	H	0.802669	0.283394	0.958870
	H4543	H	0.781895	0.285521	0.953896
	H4544	H	0.750116	0.123720	0.869551
	H4545	H	0.749908	0.374393	0.963956
	H4546	H	0.666709	0.374599	0.952880
	H4547	H	0.833382	0.123961	0.880494
	H4548	H	0.718112	0.212180	0.880125
	H4549	H	0.697321	0.214775	0.875062
	H4550	H	0.698548	0.285947	0.963647
	H4551	H	0.719356	0.283443	0.958860
	H4552	H	0.698532	0.535764	0.869440
	H4553	H	0.719311	0.533062	0.874500
	H4554	H	0.718010	-0.037471	0.952822
	H4555	H	0.697271	-0.034692	0.957844
	H4556	H	0.780755	-0.035286	0.957904
	H4557	H	0.801572	-0.037413	0.962822
	H4558	H	0.781810	0.535508	0.879648
	H4559	H	0.802591	0.533143	0.874773
	Al4560	Al	0.916706	-0.501617	0.083627
	Al4561	Al	0.916634	-0.251564	0.083466
	Al4562	Al	0.833299	-0.251218	-0.000046
	Al4563	Al	0.833348	-0.501296	0.000146
	O4564	O	0.928721	-0.458411	0.114466
	O4565	O	0.916714	-0.376680	0.060744
	O4566	O	0.916596	-0.126097	0.106095
	O4567	O	0.987413	-0.463491	0.137994
	O4568	O	0.904093	-0.463133	0.112316
	O4569	O	0.845374	-0.458039	0.136079
	O4570	O	0.904580	-0.294547	0.114019
	O4571	O	0.904096	-0.213176	0.054596
	O4572	O	0.845386	-0.208130	0.030629
	O4573	O	0.929246	-0.289828	0.112374
	O4574	O	0.928757	-0.208639	0.053043
	O4575	O	0.987402	-0.212938	0.029003
	O4576	O	0.845915	-0.289693	0.138098
	O4577	O	0.904604	-0.044896	0.052740
	O4578	O	0.845929	-0.039790	0.028917
	O4579	O	0.987932	-0.044607	0.030908
	O4580	O	0.929202	-0.040372	0.054415
	O4581	O	0.987938	-0.294657	0.136225
	O4582	O	0.833330	-0.126236	0.144121
	O4583	O	0.999993	-0.376362	0.022862
	C4584	C	0.964506	-0.286517	0.125386
	C4585	C	0.970210	-0.377553	0.128226
	C4586	C	0.963884	-0.467193	0.127847
	C4587	C	0.952168	-0.466214	0.124983
	C4588	C	0.946453	-0.375268	0.122174
	C4589	C	0.952759	-0.285429	0.122445
	C4590	C	0.933906	-0.374360	0.115957
	C4591	C	0.982757	-0.378791	0.134456
	C4592	C	0.899411	-0.378668	0.115753
	C4593	C	0.886857	-0.377576	0.122019
	C4594	C	0.881166	-0.286785	0.124967
	C4595	C	0.869431	-0.285523	0.127971
	C4596	C	0.863107	-0.374981	0.128048
	C4597	C	0.868791	-0.465701	0.125062
	C4598	C	0.880521	-0.467007	0.122124
	C4599	C	0.850563	-0.374212	0.134341
	C4600	C	0.899427	-0.128696	0.050873
	C4601	C	0.886891	-0.127700	0.044770
	C4602	C	0.881153	-0.036958	0.041960
	C4603	C	0.869446	-0.035725	0.039087
	C4604	C	0.863104	-0.125183	0.038868
	C4605	C	0.868834	-0.215818	0.041708
	C4606	C	0.880555	-0.217079	0.044539
	C4607	C	0.850599	-0.124341	0.032525
	C4608	C	0.933913	-0.124650	0.051116
	C4609	C	0.946449	-0.125045	0.044934
	C4610	C	0.952171	-0.215762	0.041997
	C4611	C	0.963890	-0.217001	0.039066
	C4612	C	0.970201	-0.127466	0.038877
	C4613	C	0.964484	-0.036727	0.041753
	C4614	C	0.952766	-0.035562	0.044588
	C4615	C	0.982743	-0.128409	0.032695
	H4616	H	0.968185	-0.287625	0.036867
	H4617	H	0.947427	-0.285477	0.041875
	H4618	H	0.969291	-0.216776	0.125541
	H4619	H	0.948453	-0.214813	0.120313
	H4620	H	0.916664	-0.377001	0.036313
	H4621	H	0.916559	-0.126388	0.130431
	H4622	H	0.833300	-0.126297	0.119564
	H4623	H	0.999925	-0.376878	0.047303
	H4624	H	0.884821	-0.287780	0.046562
	H4625	H	0.864040	-0.285421	0.041590
	H4626	H	0.865166	-0.214688	0.130258
	H4627	H	0.885962	-0.217084	0.124990
	H4628	H	0.865198	0.035280	0.036992
	H4629	H	0.885956	0.032544	0.041989
	H4630	H	0.884766	-0.537936	0.119965
	H4631	H	0.864019	-0.535605	0.125205
	H4632	H	0.947394	-0.536148	0.124851
	H4633	H	0.968144	-0.538256	0.129948
	H4634	H	0.948462	0.035100	0.046473
	H4635	H	0.969248	0.032797	0.041606
	Al4636	Al	0.916661	-0.001276	0.083397
	Al4637	Al	0.916696	0.248585	0.083450
	Al4638	Al	0.833364	0.248458	0.000117
	Al4639	Al	0.833322	-0.001406	0.000155
	O4640	O	0.928743	0.041536	0.114076
	O4641	O	0.916688	0.123851	0.060766
	O4642	O	0.916630	0.373318	0.106288
	O4643	O	0.987385	0.036761	0.138341
	O4644	O	0.904046	0.037261	0.112105
	O4645	O	0.845389	0.042171	0.136180
	O4646	O	0.904533	0.205616	0.113829
	O4647	O	0.904158	0.286976	0.054423
	O4648	O	0.845421	0.292307	0.030693
	O4649	O	0.929251	0.209985	0.112316
	O4650	O	0.928816	0.291827	0.053211
	O4651	O	0.987451	0.287958	0.029273
	O4652	O	0.845884	0.210772	0.138170
	O4653	O	0.904617	0.455125	0.052912
	O4654	O	0.845968	0.460586	0.028755
	O4655	O	0.987896	0.456422	0.030417
	O4656	O	0.929232	0.460084	0.054587
	O4657	O	0.987965	0.205210	0.136070
	O4658	O	0.833357	0.373636	0.144268
	O4659	O	0.999937	0.123760	0.022973
	C4660	C	0.964505	0.212981	0.125536
	C4661	C	0.970207	0.122269	0.128336
	C4662	C	0.963911	0.032694	0.127880
	C4663	C	0.952183	0.033849	0.124926
	C4664	C	0.946480	0.124619	0.122046
	C4665	C	0.952782	0.214098	0.122578
	C4666	C	0.933926	0.125551	0.115837
	C4667	C	0.982751	0.121400	0.134476
	C4668	C	0.899353	0.121659	0.115672
	C4669	C	0.886815	0.122547	0.121925
	C4670	C	0.881142	0.213391	0.124969
	C4671	C	0.869423	0.214797	0.127950
	C4672	C	0.863082	0.125292	0.128113
	C4673	C	0.868746	0.034422	0.125306
	C4674	C	0.880477	0.033126	0.122268
	C4675	C	0.850556	0.126357	0.134371
	C4676	C	0.899473	0.371333	0.050908
	C4677	C	0.886916	0.372164	0.044703
	C4678	C	0.881237	0.463090	0.041659
	C4679	C	0.869498	0.464269	0.038779
	C4680	C	0.863158	0.374982	0.038639
	C4681	C	0.868837	0.284030	0.041526
	C4682	C	0.880580	0.282802	0.044432
	C4683	C	0.850616	0.376142	0.032362
	C4684	C	0.933960	0.375866	0.051126
	C4685	C	0.946489	0.375336	0.044877
	C4686	C	0.952208	0.284642	0.042036
	C4687	C	0.963949	0.283666	0.039189
	C4688	C	0.970223	0.373320	0.038819
	C4689	C	0.964513	0.464070	0.041683
	C4690	C	0.952778	0.465019	0.044506
	C4691	C	0.982766	0.372479	0.032605
	H4692	H	0.968253	0.213088	0.037132
	H4693	H	0.947457	0.214808	0.042086
	H4694	H	0.969233	0.282691	0.125836
	H4695	H	0.948498	0.284779	0.120733
	H4696	H	0.916715	0.123913	0.036252
	H4697	H	0.916399	0.373295	0.130797
	H4698	H	0.833367	0.373710	0.119729
	H4699	H	0.999778	0.124473	0.047442
	H4700	H	0.884875	0.212116	0.046729
	H4701	H	0.864083	0.214175	0.041595
	H4702	H	0.865161	0.285491	0.130103
	H4703	H	0.885918	0.283207	0.124887
	H4704	H	0.865219	0.535193	0.036663
	H4705	H	0.885967	0.533170	0.041711
	H4706	H	0.884766	-0.037500	0.120062
	H4707	H	0.863972	-0.035352	0.125362
	H4708	H	0.947408	-0.035717	0.124841
	H4709	H	0.968207	-0.037793	0.129950
	H4710	H	0.948471	0.535776	0.046331
	H4711	H	0.969243	0.533971	0.041657
	Al4712	Al	0.916665	-0.501597	0.250296
	Al4713	Al	0.916713	-0.251294	0.250387
	Al4714	Al	0.833295	-0.251516	0.166813
	Al4715	Al	0.833349	-0.501502	0.166904
	O4716	O	0.928737	-0.458313	0.280868
	O4717	O	0.916687	-0.376534	0.227692
	O4718	O	0.916695	-0.126378	0.272953
	O4719	O	0.987501	-0.463188	0.304465
	O4720	O	0.904077	-0.463336	0.279076
	O4721	O	0.845402	-0.458230	0.302850
	O4722	O	0.904600	-0.294720	0.280860
	O4723	O	0.904115	-0.213102	0.221424
	O4724	O	0.845361	-0.207858	0.197327
	O4725	O	0.929256	-0.289876	0.279429
	O4726	O	0.928742	-0.208380	0.219858
	O4727	O	0.987444	-0.213375	0.195838
	O4728	O	0.845880	-0.289822	0.304537
	O4729	O	0.904544	-0.044701	0.219858
	O4730	O	0.845894	-0.039635	0.195744
	O4731	O	0.987912	-0.045013	0.197700
	O4732	O	0.929200	-0.040175	0.221333
	O4733	O	0.987945	-0.294901	0.302889
	O4734	O	0.833364	-0.126541	0.310833
	O4735	O	1.000004	-0.376832	0.189687
	C4736	C	0.964535	-0.287183	0.292097
	C4737	C	0.970245	-0.378009	0.294845
	C4738	C	0.963930	-0.467492	0.294443
	C4739	C	0.952195	-0.466253	0.291611
	C4740	C	0.946469	-0.375512	0.288914
	C4741	C	0.952783	-0.286011	0.289266
	C4742	C	0.933924	-0.374449	0.282783
	C4743	C	0.982792	-0.378954	0.301081
	C4744	C	0.899434	-0.378799	0.282626
	C4745	C	0.886884	-0.377815	0.288911
	C4746	C	0.881194	-0.286979	0.291849
	C4747	C	0.869478	-0.285854	0.294701
	C4748	C	0.863133	-0.375169	0.294766
	C4749	C	0.868832	-0.466000	0.291876
	C4750	C	0.880556	-0.467210	0.288990
	C4751	C	0.850587	-0.374422	0.301018
	C4752	C	0.899410	-0.128897	0.217750
	C4753	C	0.886876	-0.128116	0.211390
	C4754	C	0.881177	-0.037335	0.208406
	C4755	C	0.869461	-0.035774	0.205453
	C4756	C	0.863103	-0.125135	0.205379
	C4757	C	0.868813	-0.215956	0.208484
	C4758	C	0.880525	-0.217452	0.211426
	C4759	C	0.850543	-0.124033	0.199245
	C4760	C	0.933909	-0.124526	0.217761
	C4761	C	0.946446	-0.125513	0.211563
	C4762	C	0.952164	-0.216265	0.208639
	C4763	C	0.963875	-0.217672	0.205804
	C4764	C	0.970192	-0.128224	0.205604
	C4765	C	0.964486	-0.037407	0.208323
	C4766	C	0.952757	-0.035946	0.211109
	C4767	C	0.982757	-0.129155	0.199393
	H4768	H	0.968159	-0.288499	0.204028
	H4769	H	0.947396	-0.286049	0.208867
	H4770	H	0.969273	-0.217468	0.292183
	H4771	H	0.948472	-0.215390	0.287158
	H4772	H	0.916605	-0.376256	0.203202
	H4773	H	0.916824	-0.126570	0.297306
	H4774	H	0.833405	-0.126173	0.286377
	H4775	H	1.000007	-0.376945	0.214132
	H4776	H	0.884817	-0.288195	0.213560
	H4777	H	0.864052	-0.285843	0.208371
	H4778	H	0.865181	-0.215042	0.296823
	H4779	H	0.885970	-0.216867	0.291789
	H4780	H	0.865179	0.034811	0.203037
	H4781	H	0.885982	0.032408	0.208140
	H4782	H	0.884847	-0.537825	0.286758
	H4783	H	0.864076	-0.535866	0.291696
	H4784	H	0.947456	-0.536282	0.291433
	H4785	H	0.968207	-0.538330	0.296345
	H4786	H	0.948468	0.034778	0.213210
	H4787	H	0.969267	0.032395	0.208538
	Al4788	Al	0.916617	-0.001758	0.250194
	Al4789	Al	0.916672	0.248301	0.250155
	Al4790	Al	0.833313	0.249139	0.167115
	Al4791	Al	0.833325	-0.001103	0.166856
	O4792	O	0.928723	0.041366	0.280936
	O4793	O	0.916699	0.122971	0.227472
	O4794	O	0.916644	0.373043	0.272897
	O4795	O	0.987443	0.036924	0.304444
	O4796	O	0.904088	0.036584	0.278993
	O4797	O	0.845392	0.041485	0.302859
	O4798	O	0.904558	0.205108	0.280519
	O4799	O	0.904105	0.286931	0.221425
	O4800	O	0.845442	0.292261	0.197447
	O4801	O	0.929245	0.210028	0.279031
	O4802	O	0.928743	0.291326	0.219348
	O4803	O	0.987410	0.286475	0.195711
	O4804	O	0.845897	0.210186	0.304669
	O4805	O	0.904669	0.455265	0.219501
	O4806	O	0.845961	0.460609	0.195590
	O4807	O	0.987971	0.454894	0.197605
	O4808	O	0.929200	0.459764	0.221449
	O4809	O	0.987909	0.205150	0.303272
	O4810	O	0.833324	0.373454	0.310803
	O4811	O	1.000037	0.123244	0.189711
	C4812	C	0.964459	0.213108	0.292204
	C4813	C	0.970186	0.122167	0.295049
	C4814	C	0.963867	0.032416	0.294576
	C4815	C	0.952137	0.033713	0.291825
	C4816	C	0.946427	0.124687	0.288990
	C4817	C	0.952746	0.214335	0.289401
	C4818	C	0.933895	0.125414	0.282764
	C4819	C	0.982729	0.121298	0.301184
	C4820	C	0.899382	0.121043	0.282456
	C4821	C	0.886836	0.122166	0.288705
	C4822	C	0.881135	0.213018	0.291822
	C4823	C	0.869405	0.214221	0.294633
	C4824	C	0.863084	0.124620	0.294747
	C4825	C	0.868776	0.033897	0.291631
	C4826	C	0.880511	0.032709	0.288809
	C4827	C	0.850540	0.125559	0.300982
	C4828	C	0.899491	0.371563	0.217665
	C4829	C	0.886940	0.372446	0.211509
	C4830	C	0.881264	0.463191	0.208417
	C4831	C	0.869539	0.464518	0.205448
	C4832	C	0.863195	0.375170	0.205388
	C4833	C	0.868864	0.284411	0.208478
	C4834	C	0.880593	0.283137	0.211460
	C4835	C	0.850638	0.376198	0.199203
	C4836	C	0.933902	0.375445	0.217910
	C4837	C	0.946459	0.374937	0.211688
	C4838	C	0.952176	0.284105	0.208967
	C4839	C	0.963916	0.282775	0.206050
	C4840	C	0.970236	0.372292	0.205656
	C4841	C	0.964536	0.463285	0.208400
	C4842	C	0.952804	0.464428	0.211319
	C4843	C	0.982760	0.371151	0.199521
	H4844	H	0.968169	0.211983	0.203715
	H4845	H	0.947400	0.214383	0.208728
	H4846	H	0.969230	0.282738	0.292166
	H4847	H	0.948457	0.285045	0.287477
	H4848	H	0.916777	0.122888	0.203072
	H4849	H	0.916481	0.372930	0.297332
	H4850	H	0.833276	0.373140	0.286391
	H4851	H	1.000194	0.123661	0.214180
	H4852	H	0.884844	0.212308	0.213785
	H4853	H	0.864058	0.214826	0.208544
	H4854	H	0.865122	0.285056	0.296886
	H4855	H	0.885911	0.282577	0.292044
	H4856	H	0.865295	0.535431	0.203085
	H4857	H	0.886033	0.532736	0.208367
	H4858	H	0.884800	-0.038110	0.286647
	H4859	H	0.863970	-0.035509	0.291537
	H4860	H	0.947344	-0.036128	0.291677
	H4861	H	0.968171	-0.038066	0.296406
	H4862	H	0.948496	0.535431	0.212945
	H4863	H	0.969295	0.533137	0.207989
	Al4864	Al	0.916647	-0.501810	0.416656
	Al4865	Al	0.916680	-0.251727	0.416853
	Al4866	Al	0.833346	-0.251702	0.333339
	Al4867	Al	0.833293	-0.501538	0.333354
	O4868	O	0.928716	-0.459036	0.447347
	O4869	O	0.916752	-0.376757	0.394144
	O4870	O	0.916700	-0.126530	0.439635
	O4871	O	0.987497	-0.463230	0.470907
	O4872	O	0.904075	-0.463333	0.445569
	O4873	O	0.845348	-0.458972	0.469395
	O4874	O	0.904576	-0.294856	0.447312
	O4875	O	0.904155	-0.213341	0.387969
	O4876	O	0.845473	-0.209021	0.363928
	O4877	O	0.929228	-0.290488	0.445966
	O4878	O	0.928849	-0.209014	0.386611
	O4879	O	0.987444	-0.213418	0.362165
	O4880	O	0.845886	-0.290513	0.471386
	O4881	O	0.904667	-0.044845	0.386078
	O4882	O	0.845950	-0.040561	0.362257
	O4883	O	0.987907	-0.045192	0.363903
	O4884	O	0.929227	-0.040622	0.388017
	O4885	O	0.987937	-0.294788	0.469293
	O4886	O	0.833317	-0.126874	0.477529
	O4887	O	1.000022	-0.376763	0.356285
	C4888	C	0.964486	-0.287515	0.458625
	C4889	C	0.970224	-0.378222	0.461290
	C4890	C	0.963909	-0.467828	0.461020
	C4891	C	0.952185	-0.466728	0.458218
	C4892	C	0.946448	-0.375934	0.455608
	C4893	C	0.952764	-0.286359	0.455867
	C4894	C	0.933903	-0.375034	0.449288
	C4895	C	0.982772	-0.378839	0.467515
	C4896	C	0.899408	-0.378862	0.449170
	C4897	C	0.886873	-0.378175	0.455284
	C4898	C	0.881182	-0.287400	0.458487
	C4899	C	0.869439	-0.286344	0.461325
	C4900	C	0.863088	-0.375710	0.461300
	C4901	C	0.868809	-0.466346	0.458192
	C4902	C	0.880534	-0.467575	0.455269
	C4903	C	0.850544	-0.375025	0.467641
	C4904	C	0.899480	-0.128730	0.384259
	C4905	C	0.886963	-0.128051	0.378088
	C4906	C	0.881263	-0.037332	0.374972
	C4907	C	0.869525	-0.035937	0.372108
	C4908	C	0.863192	-0.125445	0.372083
	C4909	C	0.868913	-0.216077	0.375232
	C4910	C	0.880638	-0.217510	0.378104
	C4911	C	0.850647	-0.124870	0.365796
	C4912	C	0.933952	-0.124765	0.384599
	C4913	C	0.946479	-0.125521	0.378500
	C4914	C	0.952154	-0.216432	0.375630
	C4915	C	0.963875	-0.217578	0.372595
	C4916	C	0.970195	-0.128174	0.372101
	C4917	C	0.964497	-0.037221	0.375015
	C4918	C	0.952788	-0.035944	0.377984
	C4919	C	0.982746	-0.129092	0.365793
	H4920	H	0.968161	-0.288261	0.370838
	H4921	H	0.947412	-0.286129	0.376017
	H4922	H	0.969224	-0.217640	0.458893
	H4923	H	0.948466	-0.215539	0.454033
	H4924	H	0.916978	-0.376900	0.369741
	H4925	H	0.916730	-0.126624	0.464178
	H4926	H	0.833201	-0.127051	0.453050
	H4927	H	0.999945	-0.376428	0.380790
	H4928	H	0.884870	-0.288302	0.380452
	H4929	H	0.864109	-0.285737	0.375430
	H4930	H	0.865158	-0.215639	0.463404
	H4931	H	0.885930	-0.217613	0.458539
	H4932	H	0.865273	0.034954	0.369931
	H4933	H	0.886065	0.032334	0.374892
	H4934	H	0.884824	-0.538413	0.452807
	H4935	H	0.864025	-0.536286	0.457871
	H4936	H	0.947401	-0.536569	0.458100
	H4937	H	0.968222	-0.538187	0.463153
	H4938	H	0.948488	0.034694	0.380125
	H4939	H	0.969269	0.032551	0.375185
	Al4940	Al	0.916632	-0.001487	0.416753
	Al4941	Al	0.916654	0.248196	0.416811
	Al4942	Al	0.833337	0.248490	0.333684
	Al4943	Al	0.833358	-0.001618	0.333631
	O4944	O	0.928719	0.041669	0.447308
	O4945	O	0.916681	0.123446	0.394029
	O4946	O	0.916663	0.373399	0.439496
	O4947	O	0.987458	0.037480	0.471129
	O4948	O	0.904028	0.036742	0.445337
	O4949	O	0.845336	0.041225	0.469338
	O4950	O	0.904546	0.204936	0.447153
	O4951	O	0.904050	0.286541	0.387898
	O4952	O	0.845343	0.291663	0.364314
	O4953	O	0.929191	0.210034	0.445927
	O4954	O	0.928776	0.290961	0.386318
	O4955	O	0.987458	0.286767	0.362581
	O4956	O	0.845907	0.209580	0.471282
	O4957	O	0.904548	0.454971	0.386176
	O4958	O	0.845848	0.459810	0.362393
	O4959	O	0.987946	0.455238	0.364158
	O4960	O	0.929191	0.459443	0.387694
	O4961	O	0.987829	0.205650	0.469815
	O4962	O	0.833296	0.372898	0.477392
	O4963	O	0.999995	0.123045	0.356091
	C4964	C	0.964468	0.212820	0.458814
	C4965	C	0.970169	0.122032	0.461518
	C4966	C	0.963847	0.032454	0.461003
	C4967	C	0.952121	0.033886	0.458158
	C4968	C	0.946413	0.124763	0.455454
	C4969	C	0.952731	0.214254	0.455892
	C4970	C	0.933881	0.125496	0.449375
	C4971	C	0.982720	0.121524	0.467678
	C4972	C	0.899379	0.121053	0.448978
	C4973	C	0.886847	0.121998	0.455354
	C4974	C	0.881147	0.212743	0.458413
	C4975	C	0.869410	0.213732	0.461416
	C4976	C	0.863084	0.124189	0.461455
	C4977	C	0.868784	0.033568	0.458324
	C4978	C	0.880523	0.032496	0.455323
	C4979	C	0.850553	0.124910	0.467706
	C4980	C	0.899369	0.370892	0.384293
	C4981	C	0.886843	0.371907	0.377950
	C4982	C	0.881155	0.462702	0.375037
	C4983	C	0.869418	0.464136	0.372232
	C4984	C	0.863080	0.374792	0.371999
	C4985	C	0.868757	0.283899	0.375145
	C4986	C	0.880509	0.282588	0.377987
	C4987	C	0.850533	0.375527	0.365924
	C4988	C	0.933901	0.374976	0.384412
	C4989	C	0.946447	0.374363	0.378058
	C4990	C	0.952176	0.283574	0.375524
	C4991	C	0.963914	0.282494	0.372654
	C4992	C	0.970206	0.372155	0.371997
	C4993	C	0.964484	0.462981	0.374650
	C4994	C	0.952760	0.463948	0.377543
	C4995	C	0.982767	0.371275	0.365896
	H4996	H	0.968199	0.211870	0.370867
	H4997	H	0.947415	0.213779	0.375842
	H4998	H	0.969265	0.282631	0.459058
	H4999	H	0.948447	0.285200	0.453946
	H5000	H	0.916802	0.123614	0.369680
	H5001	H	0.916662	0.374031	0.463947
	H5002	H	0.833154	0.372968	0.452928
	H5003	H	0.999932	0.123067	0.380475
	H5004	H	0.884788	0.211945	0.380229
	H5005	H	0.864021	0.214093	0.375236
	H5006	H	0.865174	0.284534	0.463716
	H5007	H	0.885905	0.282568	0.458421
	H5008	H	0.865131	0.534682	0.370064
	H5009	H	0.885881	0.532534	0.374938
	H5010	H	0.884782	-0.038363	0.452957
	H5011	H	0.863999	-0.036103	0.458129
	H5012	H	0.947332	-0.035983	0.458001
	H5013	H	0.968129	-0.038469	0.462803
	H5014	H	0.948469	0.534766	0.379362
	H5015	H	0.969270	0.532888	0.374359
	Al5016	Al	0.916672	-0.501454	0.583366
	Al5017	Al	0.916688	-0.251916	0.583370
	Al5018	Al	0.833366	-0.252007	0.500231
	Al5019	Al	0.833318	-0.502217	0.500068
	O5020	O	0.928729	-0.458368	0.613958
	O5021	O	0.916659	-0.376465	0.560673
	O5022	O	0.916662	-0.126364	0.606255
	O5023	O	0.987442	-0.462926	0.638050
	O5024	O	0.904069	-0.462691	0.612193
	O5025	O	0.845400	-0.457986	0.636229
	O5026	O	0.904564	-0.294308	0.613850
	O5027	O	0.904148	-0.212915	0.554390
	O5028	O	0.845360	-0.208876	0.531079
	O5029	O	0.929207	-0.289823	0.612562
	O5030	O	0.928759	-0.208856	0.552940
	O5031	O	0.987396	-0.213385	0.528748
	O5032	O	0.845952	-0.289581	0.638381
	O5033	O	0.904585	-0.044396	0.552713
	O5034	O	0.845871	-0.040389	0.529119
	O5035	O	0.987943	-0.044816	0.530628
	O5036	O	0.929221	-0.040313	0.554640
	O5037	O	0.987882	-0.294322	0.636525
	O5038	O	0.833396	-0.126489	0.644295
	O5039	O	1.000041	-0.376435	0.522684
	C5040	C	0.964487	-0.286745	0.625310
	C5041	C	0.970205	-0.377573	0.628152
	C5042	C	0.963884	-0.467276	0.627584
	C5043	C	0.952151	-0.466112	0.624741
	C5044	C	0.946425	-0.375224	0.622211
	C5045	C	0.952751	-0.285622	0.622480
	C5046	C	0.933892	-0.374358	0.615929
	C5047	C	0.982725	-0.378409	0.634488
	C5048	C	0.899398	-0.378294	0.615764
	C5049	C	0.886856	-0.377391	0.622075
	C5050	C	0.881158	-0.286548	0.625054
	C5051	C	0.869430	-0.285308	0.627980
	C5052	C	0.863123	-0.374852	0.628267
	C5053	C	0.868810	-0.465566	0.625197
	C5054	C	0.880544	-0.466883	0.622175
	C5055	C	0.850585	-0.374055	0.634558
	C5056	C	0.899439	-0.128394	0.550948
	C5057	C	0.886886	-0.127393	0.544609
	C5058	C	0.881153	-0.036601	0.541622
	C5059	C	0.869403	-0.036077	0.538853
	C5060	C	0.863105	-0.125801	0.538778
	C5061	C	0.868857	-0.216405	0.541760
	C5062	C	0.880590	-0.217036	0.544469
	C5063	C	0.850552	-0.124872	0.532688
	C5064	C	0.933898	-0.124693	0.551096
	C5065	C	0.946441	-0.125358	0.544757
	C5066	C	0.952153	-0.216172	0.542018
	C5067	C	0.963872	-0.217458	0.538992
	C5068	C	0.970188	-0.127871	0.538575
	C5069	C	0.964468	-0.037036	0.541320
	C5070	C	0.952752	-0.035787	0.544278
	C5071	C	0.982751	-0.128786	0.532445
	H5072	H	0.968152	-0.288375	0.536889
	H5073	H	0.947348	-0.285743	0.542151
	H5074	H	0.969262	-0.216747	0.625599
	H5075	H	0.948451	-0.215045	0.620607
	H5076	H	0.916649	-0.375991	0.536082
	H5077	H	0.916799	-0.126519	0.630593
	H5078	H	0.833475	-0.126699	0.619825
	H5079	H	0.999999	-0.376382	0.547096
	H5080	H	0.884925	-0.287555	0.546586
	H5081	H	0.864173	-0.286644	0.541824
	H5082	H	0.865169	-0.214548	0.630141
	H5083	H	0.885941	-0.216703	0.625069
	H5084	H	0.865035	0.034416	0.536578
	H5085	H	0.885875	0.033436	0.541643
	H5086	H	0.884791	-0.537919	0.619999
	H5087	H	0.864051	-0.535102	0.625181
	H5088	H	0.947391	-0.535783	0.624610
	H5089	H	0.968189	-0.537969	0.629631
	H5090	H	0.948463	0.034923	0.546192
	H5091	H	0.969239	0.032884	0.540953
	Al5092	Al	0.916664	-0.001611	0.583432
	Al5093	Al	0.916662	0.248132	0.583605
	Al5094	Al	0.833352	0.248070	0.500122
	Al5095	Al	0.833303	-0.002014	0.500176
	O5096	O	0.928796	0.041521	0.613819
	O5097	O	0.916623	0.123381	0.560793
	O5098	O	0.916683	0.373290	0.606132
	O5099	O	0.987474	0.037364	0.637982
	O5100	O	0.904096	0.036843	0.612285
	O5101	O	0.845378	0.041622	0.636014
	O5102	O	0.904586	0.205175	0.614198
	O5103	O	0.904080	0.286937	0.554846
	O5104	O	0.845399	0.291635	0.530753
	O5105	O	0.929255	0.209894	0.612369
	O5106	O	0.928723	0.291414	0.552912
	O5107	O	0.987435	0.287434	0.529029
	O5108	O	0.845905	0.209961	0.637744
	O5109	O	0.904657	0.455292	0.552668
	O5110	O	0.845941	0.460068	0.528769
	O5111	O	0.987911	0.455732	0.530480
	O5112	O	0.929232	0.459873	0.554611
	O5113	O	0.987946	0.205810	0.636292
	O5114	O	0.833404	0.373688	0.644099
	O5115	O	1.000021	0.123456	0.522734
	C5116	C	0.964541	0.213116	0.625283
	C5117	C	0.970245	0.122328	0.628029
	C5118	C	0.963950	0.032555	0.627668
	C5119	C	0.952199	0.033747	0.624839
	C5120	C	0.946499	0.124615	0.622041
	C5121	C	0.952802	0.214394	0.622432
	C5122	C	0.933937	0.125435	0.615857
	C5123	C	0.982810	0.121867	0.634429
	C5124	C	0.899418	0.121159	0.615915
	C5125	C	0.886855	0.122102	0.621943
	C5126	C	0.881149	0.212833	0.625069
	C5127	C	0.869413	0.213859	0.627788
	C5128	C	0.863111	0.124274	0.627886
	C5129	C	0.868830	0.033643	0.624859
	C5130	C	0.880567	0.032617	0.622039
	C5131	C	0.850571	0.125415	0.634114
	C5132	C	0.899425	0.371496	0.551085
	C5133	C	0.886884	0.372343	0.544963
	C5134	C	0.881178	0.462858	0.541719
	C5135	C	0.869464	0.464039	0.538777
	C5136	C	0.863133	0.374493	0.538787
	C5137	C	0.868831	0.283771	0.541951
	C5138	C	0.880551	0.282687	0.544811
	C5139	C	0.850573	0.375543	0.532531
	C5140	C	0.933921	0.375449	0.551034
	C5141	C	0.946437	0.374714	0.544830
	C5142	C	0.952167	0.284094	0.542106
	C5143	C	0.963892	0.283179	0.539145
	C5144	C	0.970216	0.372635	0.538824
	C5145	C	0.964490	0.463296	0.541518
	C5146	C	0.952751	0.464261	0.544454
	C5147	C	0.982732	0.371712	0.532475
	H5148	H	0.968197	0.212545	0.537131
	H5149	H	0.947465	0.214117	0.542350
	H5150	H	0.969321	0.282915	0.625236
	H5151	H	0.948568	0.285309	0.620227
	H5152	H	0.916510	0.122839	0.536385
	H5153	H	0.916727	0.373375	0.630766
	H5154	H	0.833275	0.373868	0.619688
	H5155	H	1.000242	0.123191	0.547175
	H5156	H	0.884824	0.211773	0.546985
	H5157	H	0.864026	0.214063	0.541984
	H5158	H	0.865127	0.284746	0.629994
	H5159	H	0.885911	0.282783	0.625274
	H5160	H	0.865204	0.534540	0.536504
	H5161	H	0.885990	0.532446	0.541531
	H5162	H	0.884876	-0.038052	0.619883
	H5163	H	0.864080	-0.036121	0.624766
	H5164	H	0.947437	-0.035924	0.624476
	H5165	H	0.968246	-0.038267	0.629492
	H5166	H	0.948431	0.534826	0.546398
	H5167	H	0.969211	0.533096	0.541284
	Al5168	Al	0.916639	-0.500917	0.750303
	Al5169	Al	0.916666	-0.251171	0.750128
	Al5170	Al	0.833374	-0.251306	0.667163
	Al5171	Al	0.833317	-0.501453	0.666904
	O5172	O	0.928718	-0.457761	0.780914
	O5173	O	0.916593	-0.376064	0.727526
	O5174	O	0.916670	-0.126174	0.772671
	O5175	O	0.987475	-0.462797	0.804196
	O5176	O	0.904054	-0.462101	0.779083
	O5177	O	0.845330	-0.457738	0.802356
	O5178	O	0.904537	-0.293668	0.780527
	O5179	O	0.904149	-0.212212	0.720960
	O5180	O	0.845388	-0.207828	0.698138
	O5181	O	0.929250	-0.289382	0.779207
	O5182	O	0.928722	-0.208179	0.719541
	O5183	O	0.987410	-0.212583	0.695550
	O5184	O	0.845876	-0.289241	0.804411
	O5185	O	0.904670	-0.043837	0.719164
	O5186	O	0.845914	-0.039602	0.695753
	O5187	O	0.987914	-0.044311	0.697328
	O5188	O	0.929267	-0.039699	0.721210
	O5189	O	0.987957	-0.294412	0.802548
	O5190	O	0.833331	-0.125929	0.810475
	O5191	O	1.000051	-0.376298	0.689593
	C5192	C	0.964502	-0.286887	0.791846
	C5193	C	0.970231	-0.377606	0.794736
	C5194	C	0.963900	-0.467091	0.794625
	C5195	C	0.952165	-0.465954	0.791832
	C5196	C	0.946434	-0.375222	0.789014
	C5197	C	0.952760	-0.285677	0.789095
	C5198	C	0.933913	-0.373892	0.782775
	C5199	C	0.982771	-0.378398	0.800727
	C5200	C	0.899343	-0.377567	0.782318
	C5201	C	0.886800	-0.376654	0.788475
	C5202	C	0.881080	-0.285813	0.791378
	C5203	C	0.869344	-0.284889	0.794242
	C5204	C	0.863048	-0.374498	0.794472
	C5205	C	0.868747	-0.465328	0.791585
	C5206	C	0.880476	-0.466146	0.788758
	C5207	C	0.850507	-0.373772	0.800671
	C5208	C	0.899467	-0.127729	0.717414
	C5209	C	0.886937	-0.126593	0.711357
	C5210	C	0.881226	-0.035897	0.708550
	C5211	C	0.869481	-0.034941	0.705711
	C5212	C	0.863161	-0.124445	0.705526
	C5213	C	0.868885	-0.215034	0.708473
	C5214	C	0.880623	-0.216061	0.711182
	C5215	C	0.850611	-0.123971	0.699522
	C5216	C	0.933932	-0.124289	0.717769
	C5217	C	0.946464	-0.125132	0.711594
	C5218	C	0.952179	-0.215868	0.708770
	C5219	C	0.963902	-0.217008	0.705871
	C5220	C	0.970218	-0.127345	0.705511
	C5221	C	0.964497	-0.036613	0.708397
	C5222	C	0.952779	-0.035520	0.711341
	C5223	C	0.982739	-0.128147	0.699113
	H5224	H	0.968220	-0.287729	0.703777
	H5225	H	0.947422	-0.285536	0.708965
	H5226	H	0.969259	-0.217029	0.791736
	H5227	H	0.948482	-0.214802	0.787066
	H5228	H	0.916595	-0.376506	0.703094
	H5229	H	0.916724	-0.126246	0.797263
	H5230	H	0.833183	-0.125991	0.785968
	H5231	H	1.000017	-0.376521	0.714131
	H5232	H	0.884912	-0.287021	0.713240
	H5233	H	0.864138	-0.285004	0.708686
	H5234	H	0.865000	-0.214484	0.796340
	H5235	H	0.885801	-0.215532	0.791360
	H5236	H	0.865190	0.035848	0.703737
	H5237	H	0.886012	0.033830	0.708614
	H5238	H	0.884797	-0.536858	0.786662
	H5239	H	0.864012	-0.535353	0.791655
	H5240	H	0.947414	-0.535805	0.791726
	H5241	H	0.968193	-0.538051	0.796742
	H5242	H	0.948483	0.035191	0.713430
	H5243	H	0.969254	0.033274	0.708132
	Al5244	Al	0.916702	-0.001007	0.749962
	Al5245	Al	0.916673	0.249092	0.750180
	Al5246	Al	0.833355	0.248519	0.666696
	Al5247	Al	0.833312	-0.001357	0.666792
	O5248	O	0.928738	0.042608	0.780625
	O5249	O	0.916666	0.124085	0.727347
	O5250	O	0.916654	0.373882	0.772913
	O5251	O	0.987484	0.037742	0.804775
	O5252	O	0.904108	0.037536	0.778966
	O5253	O	0.845409	0.042548	0.802595
	O5254	O	0.904614	0.205992	0.780781
	O5255	O	0.904121	0.287103	0.721216
	O5256	O	0.845455	0.291491	0.697286
	O5257	O	0.929273	0.210927	0.778839
	O5258	O	0.928687	0.292253	0.719464
	O5259	O	0.987396	0.287260	0.695626
	O5260	O	0.845910	0.211021	0.804525
	O5261	O	0.904606	0.455663	0.719646
	O5262	O	0.845896	0.460042	0.695813
	O5263	O	0.987906	0.455805	0.697253
	O5264	O	0.929225	0.460755	0.721476
	O5265	O	0.987928	0.206323	0.803150
	O5266	O	0.833303	0.374000	0.810520
	O5267	O	1.000001	0.123628	0.689706
	C5268	C	0.964545	0.213772	0.792199
	C5269	C	0.970246	0.122979	0.795105
	C5270	C	0.963941	0.033327	0.794717
	C5271	C	0.952214	0.034368	0.791763
	C5272	C	0.946488	0.125204	0.788772
	C5273	C	0.952812	0.214732	0.789246
	C5274	C	0.933926	0.126248	0.782563
	C5275	C	0.982789	0.122002	0.801242
	C5276	C	0.899440	0.121896	0.782507
	C5277	C	0.886891	0.122922	0.788797
	C5278	C	0.881198	0.213802	0.791698
	C5279	C	0.869492	0.215053	0.794501
	C5280	C	0.863128	0.125531	0.794652
	C5281	C	0.868838	0.034653	0.791907
	C5282	C	0.880555	0.033350	0.789124
	C5283	C	0.850596	0.126565	0.800864
	C5284	C	0.899462	0.371599	0.717697
	C5285	C	0.886912	0.372547	0.711297
	C5286	C	0.881203	0.463400	0.708440
	C5287	C	0.869480	0.464699	0.705579
	C5288	C	0.863160	0.375098	0.705259
	C5289	C	0.868859	0.284272	0.708177
	C5290	C	0.880592	0.283025	0.711013
	C5291	C	0.850596	0.375646	0.699207
	C5292	C	0.933871	0.376341	0.717679
	C5293	C	0.946406	0.375327	0.711352
	C5294	C	0.952113	0.284556	0.708395
	C5295	C	0.963845	0.283412	0.705516
	C5296	C	0.970168	0.373016	0.705182
	C5297	C	0.964461	0.463766	0.708152
	C5298	C	0.952732	0.465019	0.711059
	C5299	C	0.982717	0.371738	0.699064
	H5300	H	0.968155	0.212694	0.703503
	H5301	H	0.947344	0.214618	0.708576
	H5302	H	0.969309	0.283631	0.792274
	H5303	H	0.948496	0.285382	0.787208
	H5304	H	0.916607	0.124987	0.702875
	H5305	H	0.916748	0.373899	0.797475
	H5306	H	0.833208	0.373718	0.785967
	H5307	H	0.999741	0.123374	0.714211
	H5308	H	0.884868	0.212269	0.712959
	H5309	H	0.864069	0.214411	0.708015
	H5310	H	0.865208	0.285972	0.796559
	H5311	H	0.886009	0.283186	0.791646
	H5312	H	0.865196	0.535513	0.703355
	H5313	H	0.885947	0.533004	0.708390
	H5314	H	0.884847	-0.037347	0.787081
	H5315	H	0.864040	-0.034768	0.791930
	H5316	H	0.947463	-0.035401	0.791697
	H5317	H	0.968231	-0.037462	0.796701
	H5318	H	0.948452	0.535666	0.713258
	H5319	H	0.969246	0.533582	0.708283
	Al5320	Al	0.916693	-0.501328	0.917014
	Al5321	Al	0.916639	-0.251259	0.917016
	Al5322	Al	0.833328	-0.250923	0.833218
	Al5323	Al	0.833303	-0.501225	0.833334
	O5324	O	0.928739	-0.458253	0.947539
	O5325	O	0.916634	-0.376291	0.894424
	O5326	O	0.916672	-0.126139	0.939663
	O5327	O	0.987475	-0.462590	0.970910
	O5328	O	0.904103	-0.462798	0.945782
	O5329	O	0.845385	-0.458281	0.969536
	O5330	O	0.904562	-0.294484	0.947629
	O5331	O	0.904034	-0.213019	0.888194
	O5332	O	0.845408	-0.207704	0.863947
	O5333	O	0.929187	-0.289775	0.946041
	O5334	O	0.928709	-0.208174	0.886334
	O5335	O	0.987427	-0.212479	0.862018
	O5336	O	0.845842	-0.289910	0.970976
	O5337	O	0.904612	-0.044772	0.886245
	O5338	O	0.845881	-0.039219	0.862306
	O5339	O	0.987871	-0.044374	0.863805
	O5340	O	0.929211	-0.040027	0.887780
	O5341	O	0.987897	-0.294332	0.969384
	O5342	O	0.833352	-0.126321	0.977242
	O5343	O	0.999988	-0.376351	0.855920
	C5344	C	0.964524	-0.286531	0.958501
	C5345	C	0.970226	-0.377330	0.961363
	C5346	C	0.963898	-0.466881	0.961106
	C5347	C	0.952170	-0.465770	0.958330
	C5348	C	0.946458	-0.374921	0.955506
	C5349	C	0.952788	-0.285424	0.955628
	C5350	C	0.933919	-0.374124	0.949267
	C5351	C	0.982752	-0.378351	0.967523
	C5352	C	0.899396	-0.378405	0.949141
	C5353	C	0.886843	-0.377774	0.955291
	C5354	C	0.881131	-0.287054	0.958019
	C5355	C	0.869395	-0.285681	0.960924
	C5356	C	0.863086	-0.375088	0.961378
	C5357	C	0.868803	-0.465888	0.958619
	C5358	C	0.880549	-0.467353	0.955688
	C5359	C	0.850542	-0.374323	0.967556
	C5360	C	0.899395	-0.128490	0.884392
	C5361	C	0.886877	-0.127677	0.878141
	C5362	C	0.881187	-0.036788	0.875310
	C5363	C	0.869457	-0.035237	0.872389
	C5364	C	0.863108	-0.124610	0.871976
	C5365	C	0.868802	-0.215594	0.874746
	C5366	C	0.880529	-0.217074	0.877747
	C5367	C	0.850582	-0.123626	0.865738
	C5368	C	0.933890	-0.124386	0.884454
	C5369	C	0.946423	-0.125354	0.878212
	C5370	C	0.952136	-0.216106	0.875113
	C5371	C	0.963858	-0.217147	0.872187
	C5372	C	0.970189	-0.127645	0.872098
	C5373	C	0.964471	-0.036880	0.874863
	C5374	C	0.952747	-0.035771	0.877768
	C5375	C	0.982728	-0.128228	0.865658
	H5376	H	0.968176	-0.287875	0.870052
	H5377	H	0.947364	-0.285886	0.875105
	H5378	H	0.969294	-0.216404	0.958754
	H5379	H	0.948500	-0.214539	0.953683
	H5380	H	0.916493	-0.376411	0.870044
	H5381	H	0.916516	-0.125838	0.964166
	H5382	H	0.833265	-0.126120	0.952771
	H5383	H	0.999867	-0.376116	0.880315
	H5384	H	0.884800	-0.287924	0.879847
	H5385	H	0.863991	-0.285083	0.874585
	H5386	H	0.865149	-0.214911	0.963055
	H5387	H	0.885883	-0.217275	0.958038
	H5388	H	0.865179	0.035392	0.870468
	H5389	H	0.885953	0.033036	0.875526
	H5390	H	0.884833	-0.538244	0.953865
	H5391	H	0.864051	-0.535846	0.958939
	H5392	H	0.947401	-0.535635	0.958479
	H5393	H	0.968173	-0.537427	0.963404
	H5394	H	0.948423	0.034696	0.879848
	H5395	H	0.969231	0.033053	0.874752
	Al5396	Al	0.916640	-0.001378	0.916639
	Al5397	Al	0.916658	0.248628	0.916695
	Al5398	Al	0.833370	0.249033	0.833421
	Al5399	Al	0.833344	-0.000820	0.833307
	O5400	O	0.928715	0.042218	0.947278
	O5401	O	0.916623	0.123762	0.893910
	O5402	O	0.916693	0.373438	0.939454
	O5403	O	0.987420	0.037498	0.971295
	O5404	O	0.904083	0.036719	0.945369
	O5405	O	0.845399	0.041876	0.969573
	O5406	O	0.904618	0.205003	0.947268
	O5407	O	0.904057	0.287028	0.887851
	O5408	O	0.845398	0.292432	0.864023
	O5409	O	0.929242	0.210159	0.945501
	O5410	O	0.928703	0.292018	0.885927
	O5411	O	0.987455	0.287968	0.862397
	O5412	O	0.846005	0.210246	0.971466
	O5413	O	0.904623	0.455509	0.886344
	O5414	O	0.845925	0.460677	0.861967
	O5415	O	0.987941	0.456242	0.863924
	O5416	O	0.929206	0.460550	0.887898
	O5417	O	0.987841	0.205932	0.969784
	O5418	O	0.833369	0.373127	0.977428
	O5419	O	0.999934	0.123823	0.856413
	C5420	C	0.964488	0.212921	0.958573
	C5421	C	0.970182	0.122294	0.961618
	C5422	C	0.963844	0.032871	0.961401
	C5423	C	0.952124	0.034270	0.958415
	C5424	C	0.946436	0.124987	0.955376
	C5425	C	0.952782	0.214290	0.955644
	C5426	C	0.933901	0.125838	0.949206
	C5427	C	0.982714	0.121757	0.967836
	C5428	C	0.899419	0.121119	0.949044
	C5429	C	0.886883	0.122020	0.955234
	C5430	C	0.881205	0.212898	0.958117
	C5431	C	0.869487	0.214249	0.961200
	C5432	C	0.863159	0.124775	0.961589
	C5433	C	0.868845	0.033987	0.958653
	C5434	C	0.880555	0.032612	0.955603
	C5435	C	0.850618	0.125712	0.967731
	C5436	C	0.899414	0.371677	0.884382
	C5437	C	0.886888	0.373089	0.878037
	C5438	C	0.881155	0.463925	0.875204
	C5439	C	0.869442	0.465196	0.872237
	C5440	C	0.863141	0.375556	0.871882
	C5441	C	0.868860	0.284738	0.874907
	C5442	C	0.880575	0.283606	0.877866
	C5443	C	0.850596	0.376296	0.865683
	C5444	C	0.933887	0.376057	0.884315
	C5445	C	0.946452	0.375390	0.878249
	C5446	C	0.952202	0.284784	0.875276
	C5447	C	0.963946	0.283494	0.872504
	C5448	C	0.970244	0.373069	0.872365
	C5449	C	0.964519	0.463798	0.875201
	C5450	C	0.952775	0.464923	0.877971
	C5451	C	0.982783	0.372406	0.866104
	H5452	H	0.968226	0.212858	0.870239
	H5453	H	0.947444	0.214916	0.875082
	H5454	H	0.969277	0.282680	0.958393
	H5455	H	0.948512	0.285034	0.953297
	H5456	H	0.916570	0.123784	0.869507
	H5457	H	0.916549	0.373436	0.963754
	H5458	H	0.833306	0.373313	0.953048
	H5459	H	0.999851	0.122964	0.880803
	H5460	H	0.884867	0.212798	0.879717
	H5461	H	0.864104	0.214885	0.874683
	H5462	H	0.865218	0.284955	0.963289
	H5463	H	0.885969	0.282726	0.958052
	H5464	H	0.865123	0.535732	0.869941
	H5465	H	0.885939	0.533506	0.875077
	H5466	H	0.884856	-0.038417	0.953483
	H5467	H	0.864076	-0.035873	0.958809
	H5468	H	0.947334	-0.035459	0.958280
	H5469	H	0.968107	-0.037903	0.963335
	H5470	H	0.948505	0.535790	0.879782
	H5471	H	0.969282	0.533665	0.874973
