data_Molecule from HDF5

_cell_length_a		116.107395
_cell_length_b		13.346178
_cell_length_c		44.155867
_cell_angle_alpha	90.006254
_cell_angle_beta	88.763742
_cell_angle_gamma	89.966263
_symmetry_space_group_name_H-M	'P 1'
_symmetry_Int_Tables_number		1

loop_
	_symmetry_equiv_pos_as_xyz
	x,y,z

loop_
	_atom_site_label
	_atom_site_type_symbol
	_atom_site_fract_x
	_atom_site_fract_y
	_atom_site_fract_z
	Al0	Al	0.079855	-0.500453	0.061948
	Al1	Al	0.079824	-0.250362	0.062063
	Al2	Al	-0.003447	-0.252040	-0.021944
	Al3	Al	-0.003475	-0.502295	-0.021877
	O4	O	0.092290	-0.459969	0.087099
	O5	O	0.080071	-0.375413	0.042597
	O6	O	0.079575	-0.125418	0.081401
	O7	O	0.150972	-0.458015	0.118996
	O8	O	0.067037	-0.459359	0.087236
	O9	O	0.007255	-0.462224	0.107131
	O10	O	0.066925	-0.291032	0.086665
	O11	O	0.067565	-0.208965	0.036364
	O12	O	0.008846	-0.211344	0.003720
	O13	O	0.092085	-0.291418	0.087977
	O14	O	0.092733	-0.209967	0.037233
	O15	O	0.152628	-0.207951	0.018129
	O16	O	0.007112	-0.293749	0.106745
	O17	O	0.067401	-0.040674	0.036638
	O18	O	0.008776	-0.043074	0.003811
	O19	O	0.152484	-0.039598	0.017509
	O20	O	0.092626	-0.041615	0.036823
	O21	O	0.150843	-0.289813	0.119522
	O22	O	-0.005436	-0.127493	0.114193
	O23	O	0.165272	-0.373817	0.012337
	C24	C	0.127353	-0.284594	0.106384
	C25	C	0.133480	-0.374396	0.108519
	C26	C	0.127516	-0.464561	0.105614
	C27	C	0.115762	-0.464883	0.100532
	C28	C	0.109636	-0.375171	0.098199
	C29	C	0.115599	-0.284983	0.101301
	C30	C	0.097102	-0.375591	0.090524
	C31	C	0.146013	-0.374010	0.116204
	C32	C	0.061964	-0.375489	0.089113
	C33	C	0.049140	-0.375853	0.094397
	C34	C	0.042946	-0.286154	0.095376
	C35	C	0.031017	-0.286738	0.098043
	C36	C	0.025007	-0.377075	0.099823
	C37	C	0.031201	-0.466711	0.098939
	C38	C	0.043131	-0.466055	0.096281
	C39	C	0.012191	-0.377821	0.104837
	C40	C	0.062542	-0.125247	0.033366
	C41	C	0.050057	-0.125924	0.025571
	C42	C	0.043939	-0.036469	0.023238
	C43	C	0.032185	-0.036740	0.017945
	C44	C	0.026231	-0.126741	0.014870
	C45	C	0.032318	-0.216305	0.017520
	C46	C	0.044072	-0.215985	0.022740
	C47	C	0.013724	-0.127055	0.006919
	C48	C	0.097716	-0.125611	0.034859
	C49	C	0.110523	-0.125238	0.029750
	C50	C	0.116711	-0.214918	0.028956
	C51	C	0.128641	-0.214473	0.026538
	C52	C	0.134702	-0.124241	0.024754
	C53	C	0.128526	-0.034509	0.025691
	C54	C	0.116596	-0.035029	0.028134
	C55	C	0.147505	-0.123957	0.019796
	H56	H	0.133309	-0.284395	0.026141
	H57	H	0.112176	-0.285286	0.030390
	H58	H	0.131828	-0.214635	0.108817
	H59	H	0.110987	-0.215101	0.099692
	H60	H	0.080459	-0.375679	0.021813
	H61	H	0.079490	-0.125012	0.102267
	H62	H	-0.005216	-0.127152	0.093404
	H63	H	0.165282	-0.374505	0.033176
	H64	H	0.048636	-0.285817	0.024578
	H65	H	0.027842	-0.286394	0.015372
	H66	H	0.026338	-0.217172	0.098729
	H67	H	0.047482	-0.215921	0.093985
	H68	H	0.027584	0.033063	0.016114
	H69	H	0.048378	0.033845	0.025494
	H70	H	0.047785	-0.535813	0.095537
	H71	H	0.026685	-0.536874	0.100218
	H72	H	0.111297	-0.535138	0.098318
	H73	H	0.132109	-0.534403	0.107440
	H74	H	0.111934	0.034750	0.028964
	H75	H	0.133070	0.035718	0.024600
	Al76	Al	0.079779	-0.000610	0.061852
	Al77	Al	0.079842	0.249795	0.062051
	Al78	Al	-0.003463	0.247805	-0.021720
	Al79	Al	-0.003508	-0.002049	-0.022066
	O80	O	0.092162	0.039850	0.087323
	O81	O	0.080093	0.124578	0.042555
	O82	O	0.079629	0.374938	0.081527
	O83	O	0.150939	0.041924	0.119034
	O84	O	0.067039	0.040788	0.087150
	O85	O	0.007192	0.038067	0.107107
	O86	O	0.066900	0.208939	0.086597
	O87	O	0.067668	0.291043	0.036183
	O88	O	0.008932	0.288616	0.003769
	O89	O	0.092071	0.208399	0.087858
	O90	O	0.092838	0.289757	0.037564
	O91	O	0.152580	0.291867	0.017768
	O92	O	0.007155	0.206647	0.106938
	O93	O	0.067520	0.459394	0.036439
	O94	O	0.008834	0.456782	0.003661
	O95	O	0.152581	0.459832	0.017778
	O96	O	0.092682	0.457993	0.036892
	O97	O	0.150801	0.210259	0.119490
	O98	O	-0.005357	0.372325	0.114254
	O99	O	0.165128	0.125980	0.012321
	C100	C	0.127298	0.214987	0.106492
	C101	C	0.133409	0.125272	0.108643
	C102	C	0.127459	0.035092	0.105690
	C103	C	0.115691	0.034724	0.100652
	C104	C	0.109577	0.124399	0.098279
	C105	C	0.115530	0.214547	0.101427
	C106	C	0.097035	0.124119	0.090770
	C107	C	0.145947	0.125894	0.116170
	C108	C	0.061930	0.124524	0.089103
	C109	C	0.049149	0.124262	0.094386
	C110	C	0.042950	0.213989	0.095334
	C111	C	0.031025	0.213276	0.097962
	C112	C	0.024976	0.122982	0.099757
	C113	C	0.031188	0.033363	0.098861
	C114	C	0.043112	0.034003	0.096271
	C115	C	0.012160	0.122537	0.104859
	C116	C	0.062662	0.375216	0.033099
	C117	C	0.050168	0.374631	0.025393
	C118	C	0.044027	0.464259	0.022930
	C119	C	0.032278	0.463772	0.017799
	C120	C	0.026314	0.373488	0.014783
	C121	C	0.032462	0.283891	0.017194
	C122	C	0.044219	0.284426	0.022317
	C123	C	0.013805	0.372838	0.006925
	C124	C	0.097775	0.374253	0.035056
	C125	C	0.110565	0.374651	0.029787
	C126	C	0.116757	0.285084	0.028862
	C127	C	0.128673	0.285486	0.026398
	C128	C	0.134754	0.375671	0.024772
	C129	C	0.128566	0.465222	0.025739
	C130	C	0.116635	0.464874	0.028205
	C131	C	0.147562	0.375860	0.019693
	H132	H	0.133344	0.215647	0.025759
	H133	H	0.112207	0.214934	0.030161
	H134	H	0.131785	0.285222	0.108667
	H135	H	0.110961	0.284486	0.099880
	H136	H	0.080717	0.124910	0.021820
	H137	H	0.079617	0.374750	0.102282
	H138	H	-0.005082	0.373151	0.093582
	H139	H	0.164493	0.125612	0.033086
	H140	H	0.048849	0.214685	0.024059
	H141	H	0.027983	0.213643	0.015019
	H142	H	0.026343	0.283166	0.098535
	H143	H	0.047492	0.284125	0.093882
	H144	H	0.027658	0.533451	0.016105
	H145	H	0.048479	0.534474	0.025141
	H146	H	0.047803	-0.035771	0.095540
	H147	H	0.026641	-0.036781	0.100246
	H148	H	0.111207	-0.035546	0.098401
	H149	H	0.132052	-0.034722	0.107285
	H150	H	0.111980	0.534904	0.028933
	H151	H	0.133133	0.535388	0.024465
	Al152	Al	0.078056	-0.500619	0.216367
	Al153	Al	0.078029	-0.251245	0.216319
	Al154	Al	-0.005354	-0.252231	0.133352
	Al155	Al	-0.005351	-0.502853	0.133564
	O156	O	0.090679	-0.460068	0.240711
	O157	O	0.077923	-0.375674	0.197090
	O158	O	0.078361	-0.125702	0.235616
	O159	O	0.148819	-0.458348	0.276282
	O160	O	0.066519	-0.460056	0.245415
	O161	O	0.017058	-0.459925	0.338636
	O162	O	0.066404	-0.291762	0.245105
	O163	O	0.065489	-0.210160	0.192395
	O164	O	0.007328	-0.211314	0.157697
	O165	O	0.090647	-0.291689	0.240956
	O166	O	0.090634	-0.210359	0.190157
	O167	O	0.150432	-0.207857	0.170104
	O168	O	0.016919	-0.291470	0.338122
	O169	O	0.065434	-0.041709	0.192641
	O170	O	0.007202	-0.042813	0.158171
	O171	O	0.150323	-0.039662	0.169687
	O172	O	0.090485	-0.041868	0.189643
	O173	O	0.148698	-0.290160	0.276325
	O174	O	0.004925	-0.125798	0.347720
	O175	O	0.163014	-0.374094	0.164315
	C176	C	0.125393	-0.285499	0.262839
	C177	C	0.131426	-0.374906	0.265439
	C178	C	0.125530	-0.464788	0.262189
	C179	C	0.113881	-0.465167	0.255954
	C180	C	0.107874	-0.375676	0.252912
	C181	C	0.113752	-0.285824	0.256607
	C182	C	0.095495	-0.375899	0.244283
	C183	C	0.143854	-0.374498	0.273312
	C184	C	0.062272	-0.376021	0.252957
	C185	C	0.051655	-0.376005	0.273062
	C186	C	0.046452	-0.287072	0.281898
	C187	C	0.036604	-0.286888	0.300336
	C188	C	0.031715	-0.375877	0.310407
	C189	C	0.036956	-0.464788	0.301703
	C190	C	0.046802	-0.465013	0.283212
	C191	C	0.021129	-0.375692	0.330541
	C192	C	0.060584	-0.126106	0.189591
	C193	C	0.048125	-0.126324	0.181884
	C194	C	0.042091	-0.036702	0.179514
	C195	C	0.030427	-0.037029	0.173409
	C196	C	0.024543	-0.127063	0.169728
	C197	C	0.030555	-0.216823	0.172642
	C198	C	0.042214	-0.216412	0.178740
	C199	C	0.012139	-0.126861	0.161207
	C200	C	0.095565	-0.125931	0.187689
	C201	C	0.108383	-0.125309	0.182643
	C202	C	0.114570	-0.214829	0.181912
	C203	C	0.126493	-0.214360	0.179295
	C204	C	0.132534	-0.124244	0.177310
	C205	C	0.126360	-0.034586	0.178295
	C206	C	0.114425	-0.035107	0.180889
	C207	C	0.145347	-0.124059	0.172108
	H208	H	0.131120	-0.284355	0.178700
	H209	H	0.110013	-0.285095	0.183358
	H210	H	0.129865	-0.215605	0.265596
	H211	H	0.109203	-0.216315	0.254390
	H212	H	0.078063	-0.376035	0.176376
	H213	H	0.078940	-0.125968	0.256373
	H214	H	0.004183	-0.125242	0.326947
	H215	H	0.162628	-0.373955	0.185166
	H216	H	0.046794	-0.286084	0.180858
	H217	H	0.026132	-0.286780	0.169963
	H218	H	0.032637	-0.217851	0.306952
	H219	H	0.050121	-0.218074	0.274126
	H220	H	0.025843	0.032573	0.171366
	H221	H	0.046539	0.033152	0.182294
	H222	H	0.050748	-0.533895	0.276550
	H223	H	0.033276	-0.533710	0.309421
	H224	H	0.109413	-0.534962	0.253200
	H225	H	0.130101	-0.534190	0.264421
	H226	H	0.109784	0.034560	0.181452
	H227	H	0.130878	0.035318	0.176920
	Al228	Al	0.078083	-0.000399	0.216304
	Al229	Al	0.078078	0.248736	0.216142
	Al230	Al	-0.005365	0.247451	0.133509
	Al231	Al	-0.005359	-0.003098	0.133431
	O232	O	0.090696	0.039970	0.240692
	O233	O	0.077901	0.124317	0.196966
	O234	O	0.078483	0.373980	0.235501
	O235	O	0.148822	0.042213	0.275820
	O236	O	0.066420	0.040526	0.245318
	O237	O	0.017053	0.040072	0.338622
	O238	O	0.066336	0.208371	0.244741
	O239	O	0.065479	0.290234	0.192363
	O240	O	0.007220	0.288241	0.158424
	O241	O	0.090603	0.208285	0.240840
	O242	O	0.090649	0.289554	0.189958
	O243	O	0.150449	0.292232	0.169871
	O244	O	0.016891	0.208189	0.338180
	O245	O	0.065432	0.458629	0.192508
	O246	O	0.007198	0.456841	0.158281
	O247	O	0.150331	0.460443	0.169634
	O248	O	0.090470	0.458074	0.189459
	O249	O	0.148753	0.210706	0.276188
	O250	O	0.004950	0.374274	0.347861
	O251	O	0.162970	0.125977	0.164170
	C252	C	0.125351	0.215394	0.262829
	C253	C	0.131420	0.126122	0.265392
	C254	C	0.125540	0.036216	0.262123
	C255	C	0.113878	0.035305	0.255999
	C256	C	0.107836	0.124687	0.253053
	C257	C	0.113688	0.214682	0.256719
	C258	C	0.095478	0.124328	0.244278
	C259	C	0.143872	0.126362	0.273129
	C260	C	0.062187	0.124515	0.252784
	C261	C	0.051613	0.124939	0.272998
	C262	C	0.046458	0.213759	0.282086
	C263	C	0.036601	0.213619	0.300617
	C264	C	0.031721	0.124505	0.310450
	C265	C	0.036938	0.035786	0.301601
	C266	C	0.046775	0.036113	0.283094
	C267	C	0.021151	0.124325	0.330674
	C268	C	0.060551	0.374505	0.189613
	C269	C	0.048092	0.374172	0.182069
	C270	C	0.042051	0.463865	0.179475
	C271	C	0.030385	0.463306	0.173488
	C272	C	0.024476	0.373209	0.170126
	C273	C	0.030531	0.283740	0.172893
	C274	C	0.042197	0.284087	0.178884
	C275	C	0.012057	0.372647	0.161711
	C276	C	0.095579	0.374180	0.187638
	C277	C	0.108374	0.374863	0.182656
	C278	C	0.114565	0.285303	0.181701
	C279	C	0.126492	0.285997	0.179161
	C280	C	0.132559	0.375871	0.177449
	C281	C	0.126351	0.465458	0.178436
	C282	C	0.114427	0.464885	0.181054
	C283	C	0.145346	0.376177	0.172029
	H284	H	0.131160	0.216493	0.178486
	H285	H	0.110030	0.214949	0.183065
	H286	H	0.129768	0.285254	0.265685
	H287	H	0.109091	0.284095	0.254571
	H288	H	0.077915	0.123955	0.176277
	H289	H	0.079284	0.374149	0.256178
	H290	H	0.003996	0.374618	0.327232
	H291	H	0.162584	0.125287	0.185068
	H292	H	0.046770	0.214559	0.180973
	H293	H	0.026065	0.214105	0.170194
	H294	H	0.032722	0.282562	0.307475
	H295	H	0.050124	0.282691	0.274442
	H296	H	0.025845	0.532656	0.171298
	H297	H	0.046533	0.533487	0.182101
	H298	H	0.050721	-0.032864	0.276331
	H299	H	0.033322	-0.033374	0.309349
	H300	H	0.109452	-0.034663	0.253348
	H301	H	0.130139	-0.033093	0.264390
	H302	H	0.109759	0.534748	0.181884
	H303	H	0.130900	0.535699	0.177271
	Al304	Al	0.088672	-0.499427	0.450833
	Al305	Al	0.088660	-0.249089	0.450787
	Al306	Al	0.005316	-0.251295	0.366888
	Al307	Al	0.005369	-0.500484	0.367172
	O308	O	0.101356	-0.458704	0.474456
	O309	O	0.088343	-0.374015	0.431499
	O310	O	0.088771	-0.124127	0.469998
	O311	O	0.159470	-0.457165	0.508987
	O312	O	0.076223	-0.458035	0.477363
	O313	O	0.016351	-0.461073	0.496547
	O314	O	0.076077	-0.289364	0.477088
	O315	O	0.076117	-0.208609	0.426146
	O316	O	0.017951	-0.210149	0.390672
	O317	O	0.101207	-0.290372	0.474960
	O318	O	0.100380	-0.208197	0.422185
	O319	O	0.149741	-0.208043	0.328662
	O320	O	0.016219	-0.292695	0.496198
	O321	O	0.076045	-0.040462	0.426308
	O322	O	0.017897	-0.042103	0.391214
	O323	O	0.149686	-0.040206	0.328424
	O324	O	0.100315	-0.040133	0.421996
	O325	O	0.159435	-0.288687	0.509226
	O326	O	0.003705	-0.126835	0.502141
	O327	O	0.161718	-0.374669	0.319344
	C328	C	0.136197	-0.283508	0.494193
	C329	C	0.142215	-0.372984	0.497109
	C330	C	0.136331	-0.462878	0.493739
	C331	C	0.124669	-0.463265	0.487728
	C332	C	0.118648	-0.373834	0.485051
	C333	C	0.124529	-0.283944	0.488171
	C334	C	0.106180	-0.374324	0.477590
	C335	C	0.154617	-0.372849	0.505651
	C336	C	0.071111	-0.374005	0.479407
	C337	C	0.058308	-0.374635	0.484387
	C338	C	0.052101	-0.285093	0.485135
	C339	C	0.040174	-0.285789	0.487573
	C340	C	0.034123	-0.375905	0.489282
	C341	C	0.040318	-0.465365	0.488311
	C342	C	0.052260	-0.464801	0.485881
	C343	C	0.021300	-0.376689	0.494245
	C344	C	0.071234	-0.124523	0.422723
	C345	C	0.058849	-0.124784	0.414187
	C346	C	0.052827	-0.035328	0.410981
	C347	C	0.041173	-0.035675	0.404810
	C348	C	0.035269	-0.125651	0.401682
	C349	C	0.041331	-0.215039	0.404519
	C350	C	0.052976	-0.214500	0.410653
	C351	C	0.022823	-0.126218	0.394076
	C352	C	0.104537	-0.124209	0.414334
	C353	C	0.115113	-0.124341	0.394291
	C354	C	0.120172	-0.213100	0.384842
	C355	C	0.129997	-0.212917	0.366287
	C356	C	0.135015	-0.123989	0.356655
	C357	C	0.129938	-0.035286	0.366083
	C358	C	0.120120	-0.035392	0.384696
	C359	C	0.145558	-0.124183	0.336363
	H360	H	0.133823	-0.281905	0.359064
	H361	H	0.116412	-0.282052	0.392094
	H362	H	0.140647	-0.213520	0.496701
	H363	H	0.119951	-0.214672	0.486010
	H364	H	0.087829	-0.374445	0.410723
	H365	H	0.088653	-0.124233	0.490661
	H366	H	0.004168	-0.126684	0.481340
	H367	H	0.162446	-0.374394	0.340020
	H368	H	0.057527	-0.283988	0.412893
	H369	H	0.036885	-0.284861	0.401870
	H370	H	0.035498	-0.216231	0.488277
	H371	H	0.056609	-0.215196	0.483861
	H372	H	0.036615	0.033774	0.402509
	H373	H	0.057297	0.034365	0.413567
	H374	H	0.056914	-0.534484	0.485238
	H375	H	0.035780	-0.535649	0.489474
	H376	H	0.120246	-0.533265	0.485157
	H377	H	0.140877	-0.532424	0.495972
	H378	H	0.116296	0.033698	0.391827
	H379	H	0.133694	0.033722	0.358807
	Al380	Al	0.088651	0.000489	0.450653
	Al381	Al	0.088643	0.251402	0.450608
	Al382	Al	0.005371	0.249093	0.367104
	Al383	Al	0.005349	-0.000683	0.367194
	O384	O	0.101328	0.041598	0.474238
	O385	O	0.088278	0.125809	0.431364
	O386	O	0.088745	0.375865	0.470059
	O387	O	0.159452	0.043105	0.509101
	O388	O	0.076259	0.041803	0.477267
	O389	O	0.016419	0.038471	0.496781
	O390	O	0.076088	0.209988	0.476858
	O391	O	0.076127	0.292154	0.426056
	O392	O	0.017996	0.289931	0.390730
	O393	O	0.101203	0.209956	0.474557
	O394	O	0.100319	0.291600	0.422056
	O395	O	0.149789	0.291877	0.328936
	O396	O	0.016230	0.207030	0.496529
	O397	O	0.075999	0.460671	0.426488
	O398	O	0.017905	0.458569	0.391027
	O399	O	0.149651	0.459778	0.328553
	O400	O	0.100218	0.459584	0.421754
	O401	O	0.159291	0.211636	0.509805
	O402	O	0.003652	0.373336	0.502070
	O403	O	0.161712	0.125342	0.319222
	C404	C	0.136147	0.216574	0.494512
	C405	C	0.142166	0.127043	0.497210
	C406	C	0.136301	0.037183	0.493470
	C407	C	0.124661	0.037083	0.487353
	C408	C	0.118626	0.126579	0.484882
	C409	C	0.124502	0.216435	0.488379
	C410	C	0.106176	0.125972	0.477242
	C411	C	0.154526	0.127214	0.505908
	C412	C	0.071126	0.125503	0.479090
	C413	C	0.058327	0.124886	0.484026
	C414	C	0.052121	0.214355	0.485062
	C415	C	0.040203	0.213669	0.487690
	C416	C	0.034136	0.123589	0.489306
	C417	C	0.040340	0.034139	0.488175
	C418	C	0.052247	0.034778	0.485573
	C419	C	0.021340	0.123263	0.494571
	C420	C	0.071241	0.376330	0.422659
	C421	C	0.058857	0.375795	0.413902
	C422	C	0.052828	0.465416	0.410791
	C423	C	0.041186	0.464901	0.404590
	C424	C	0.035298	0.374747	0.401430
	C425	C	0.041358	0.285284	0.404064
	C426	C	0.053000	0.285758	0.410328
	C427	C	0.022817	0.374358	0.393795
	C428	C	0.104459	0.375774	0.414239
	C429	C	0.115040	0.376173	0.394225
	C430	C	0.120214	0.287242	0.385189
	C431	C	0.130043	0.287177	0.366665
	C432	C	0.134969	0.375973	0.356694
	C433	C	0.129760	0.464988	0.365598
	C434	C	0.119924	0.464972	0.384144
	C435	C	0.145551	0.375868	0.336545
	H436	H	0.133946	0.218457	0.359766
	H437	H	0.116534	0.218147	0.392758
	H438	H	0.140606	0.286089	0.497433
	H439	H	0.119922	0.285986	0.486443
	H440	H	0.087828	0.126057	0.410679
	H441	H	0.088694	0.375348	0.490837
	H442	H	0.003882	0.373438	0.481320
	H443	H	0.162373	0.125357	0.339833
	H444	H	0.057561	0.216241	0.412574
	H445	H	0.036921	0.215543	0.401241
	H446	H	0.035516	0.283364	0.488623
	H447	H	0.056683	0.284226	0.483830
	H448	H	0.036618	0.534231	0.402293
	H449	H	0.057274	0.535241	0.413426
	H450	H	0.056892	-0.034883	0.484712
	H451	H	0.035766	-0.036014	0.489421
	H452	H	0.120187	-0.032413	0.484576
	H453	H	0.140836	-0.032395	0.495475
	H454	H	0.115987	0.533951	0.390893
	H455	H	0.133410	0.533954	0.357789
	Al456	Al	0.086789	-0.499936	0.604953
	Al457	Al	0.086825	-0.249746	0.605158
	Al458	Al	0.003461	-0.251262	0.521500
	Al459	Al	0.003448	-0.501713	0.521462
	O460	O	0.099075	-0.459871	0.630583
	O461	O	0.086995	-0.375065	0.585679
	O462	O	0.086606	-0.124794	0.624556
	O463	O	0.157852	-0.457650	0.662493
	O464	O	0.073957	-0.459347	0.630162
	O465	O	0.014089	-0.461276	0.649121
	O466	O	0.073854	-0.290738	0.629896
	O467	O	0.074577	-0.209000	0.579313
	O468	O	0.015920	-0.211171	0.546662
	O469	O	0.098988	-0.291643	0.630946
	O470	O	0.099745	-0.209125	0.580550
	O471	O	0.159556	-0.206784	0.560186
	O472	O	0.013953	-0.293007	0.648992
	O473	O	0.074468	-0.040369	0.579556
	O474	O	0.015748	-0.042801	0.547267
	O475	O	0.159417	-0.038389	0.560150
	O476	O	0.099607	-0.040998	0.579705
	O477	O	0.157793	-0.289435	0.662637
	O478	O	0.001355	-0.126733	0.654675
	O479	O	0.172046	-0.372697	0.553065
	C480	C	0.134246	-0.284490	0.649190
	C481	C	0.140400	-0.373957	0.651542
	C482	C	0.134442	-0.464208	0.648668
	C483	C	0.122660	-0.464815	0.643638
	C484	C	0.116511	-0.375313	0.641221
	C485	C	0.122461	-0.285166	0.644209
	C486	C	0.103972	-0.375646	0.633676
	C487	C	0.152908	-0.373522	0.659325
	C488	C	0.068876	-0.375173	0.632011
	C489	C	0.056059	-0.375480	0.636931
	C490	C	0.049884	-0.285657	0.637802
	C491	C	0.037934	-0.286024	0.640257
	C492	C	0.031866	-0.376230	0.641948
	C493	C	0.038035	-0.466079	0.641219
	C494	C	0.049984	-0.465516	0.638753
	C495	C	0.019059	-0.376866	0.646954
	C496	C	0.069607	-0.124781	0.576312
	C497	C	0.057089	-0.125447	0.568534
	C498	C	0.050974	-0.035681	0.566260
	C499	C	0.039222	-0.036021	0.561083
	C500	C	0.033274	-0.126222	0.558016
	C501	C	0.039388	-0.216043	0.560323
	C502	C	0.051132	-0.215634	0.565501
	C503	C	0.020751	-0.126760	0.550178
	C504	C	0.104702	-0.124830	0.577885
	C505	C	0.117500	-0.124439	0.572752
	C506	C	0.123679	-0.214159	0.571642
	C507	C	0.135619	-0.213691	0.569023
	C508	C	0.141659	-0.123411	0.567229
	C509	C	0.135461	-0.033794	0.568249
	C510	C	0.123536	-0.034254	0.570840
	C511	C	0.154463	-0.122868	0.562308
	H512	H	0.140284	-0.283534	0.568373
	H513	H	0.119119	-0.284007	0.572880
	H514	H	0.138678	-0.214143	0.651550
	H515	H	0.117849	-0.215280	0.642773
	H516	H	0.087277	-0.375321	0.564931
	H517	H	0.086211	-0.124329	0.645369
	H518	H	0.001697	-0.126842	0.634032
	H519	H	0.171652	-0.372953	0.573788
	H520	H	0.055726	-0.285586	0.567123
	H521	H	0.034934	-0.286220	0.557841
	H522	H	0.033279	-0.216077	0.640876
	H523	H	0.054453	-0.215440	0.636537
	H524	H	0.034627	0.033774	0.559206
	H525	H	0.055463	0.034584	0.568424
	H526	H	0.054624	-0.535283	0.638214
	H527	H	0.033471	-0.536397	0.642563
	H528	H	0.118187	-0.535124	0.641748
	H529	H	0.139013	-0.533852	0.650590
	H530	H	0.118854	0.035617	0.571478
	H531	H	0.140015	0.036236	0.566930
	Al532	Al	0.086793	-0.000056	0.604960
	Al533	Al	0.086783	0.250027	0.604784
	Al534	Al	0.003430	0.248543	0.521616
	Al535	Al	0.003473	-0.001801	0.521623
	O536	O	0.099146	0.041203	0.630394
	O537	O	0.087031	0.124989	0.585482
	O538	O	0.086529	0.374936	0.624331
	O539	O	0.157893	0.042534	0.662467
	O540	O	0.073964	0.041186	0.630080
	O541	O	0.014126	0.038590	0.649320
	O542	O	0.073899	0.209473	0.629662
	O543	O	0.074510	0.291449	0.579209
	O544	O	0.015774	0.289526	0.547019
	O545	O	0.099075	0.209332	0.630387
	O546	O	0.099617	0.291093	0.579644
	O547	O	0.159594	0.293453	0.560877
	O548	O	0.013965	0.206666	0.649162
	O549	O	0.074379	0.459629	0.579620
	O550	O	0.015690	0.457773	0.547299
	O551	O	0.159442	0.461866	0.560235
	O552	O	0.099564	0.459143	0.579590
	O553	O	0.157746	0.210893	0.663072
	O554	O	0.001418	0.372907	0.654565
	O555	O	0.171980	0.127010	0.553334
	C556	C	0.134293	0.216208	0.649223
	C557	C	0.140384	0.126620	0.651874
	C558	C	0.134399	0.036616	0.649018
	C559	C	0.122641	0.036092	0.643865
	C560	C	0.116560	0.125672	0.641247
	C561	C	0.122538	0.215735	0.644062
	C562	C	0.104033	0.125273	0.633587
	C563	C	0.152919	0.126585	0.659629
	C564	C	0.068887	0.125195	0.631982
	C565	C	0.056084	0.124831	0.637113
	C566	C	0.049875	0.214385	0.637968
	C567	C	0.037940	0.213762	0.640429
	C568	C	0.031902	0.123567	0.642126
	C569	C	0.038111	0.034133	0.641318
	C570	C	0.050029	0.034713	0.638845
	C571	C	0.019089	0.122830	0.647172
	C572	C	0.069521	0.375348	0.576219
	C573	C	0.057006	0.374650	0.568487
	C574	C	0.050880	0.464026	0.566049
	C575	C	0.039139	0.463569	0.560920
	C576	C	0.033167	0.373620	0.558018
	C577	C	0.039260	0.284201	0.560566
	C578	C	0.051003	0.284586	0.565691
	C579	C	0.020660	0.373719	0.550422
	C580	C	0.104612	0.375282	0.577493
	C581	C	0.117434	0.375487	0.572504
	C582	C	0.123642	0.286078	0.571431
	C583	C	0.135580	0.286505	0.569086
	C584	C	0.141644	0.376523	0.567608
	C585	C	0.135445	0.465876	0.568335
	C586	C	0.123509	0.465422	0.570709
	C587	C	0.154474	0.377313	0.562700
	H588	H	0.140261	0.216957	0.568431
	H589	H	0.119130	0.215719	0.572602
	H590	H	0.138810	0.286491	0.651209
	H591	H	0.117989	0.285648	0.642054
	H592	H	0.087383	0.124836	0.564693
	H593	H	0.086212	0.375024	0.645223
	H594	H	0.001850	0.372735	0.633882
	H595	H	0.171836	0.126318	0.574034
	H596	H	0.055593	0.214746	0.567517
	H597	H	0.034777	0.214055	0.558559
	H598	H	0.033251	0.283591	0.640997
	H599	H	0.054423	0.284619	0.636508
	H600	H	0.034570	0.533353	0.559159
	H601	H	0.055371	0.534078	0.568093
	H602	H	0.054673	-0.035227	0.638181
	H603	H	0.033546	-0.036269	0.642510
	H604	H	0.118157	-0.034189	0.641731
	H605	H	0.138989	-0.033431	0.650768
	H606	H	0.118833	0.535155	0.571353
	H607	H	0.139980	0.536043	0.567071
	Al608	Al	0.084513	-0.499640	0.757189
	Al609	Al	0.084510	-0.249569	0.757059
	Al610	Al	0.001109	-0.251818	0.674078
	Al611	Al	0.001149	-0.501884	0.673956
	O612	O	0.096865	-0.459340	0.782644
	O613	O	0.084736	-0.374819	0.737706
	O614	O	0.084252	-0.124646	0.776641
	O615	O	0.155501	-0.457595	0.815167
	O616	O	0.071695	-0.458378	0.782461
	O617	O	0.011774	-0.461089	0.801461
	O618	O	0.071547	-0.290119	0.781908
	O619	O	0.072266	-0.208548	0.731412
	O620	O	0.013441	-0.211090	0.699670
	O621	O	0.096754	-0.290832	0.782881
	O622	O	0.097454	-0.209467	0.732396
	O623	O	0.157354	-0.207500	0.713200
	O624	O	0.011728	-0.292633	0.801389
	O625	O	0.072185	-0.040403	0.731631
	O626	O	0.013399	-0.042947	0.700003
	O627	O	0.157212	-0.039248	0.712960
	O628	O	0.097356	-0.041210	0.732188
	O629	O	0.155468	-0.289563	0.815066
	O630	O	-0.000928	-0.126858	0.806888
	O631	O	0.169944	-0.373313	0.707572
	C632	C	0.131979	-0.284210	0.801714
	C633	C	0.138049	-0.374010	0.804188
	C634	C	0.132036	-0.463961	0.801324
	C635	C	0.120275	-0.464089	0.796223
	C636	C	0.114222	-0.374352	0.793685
	C637	C	0.120224	-0.284319	0.796607
	C638	C	0.101697	-0.374840	0.785913
	C639	C	0.150575	-0.373617	0.811824
	C640	C	0.066593	-0.374478	0.784263
	C641	C	0.053765	-0.375330	0.789239
	C642	C	0.047558	-0.285757	0.790136
	C643	C	0.035628	-0.286228	0.792656
	C644	C	0.029574	-0.376483	0.794318
	C645	C	0.035789	-0.466121	0.793524
	C646	C	0.047719	-0.465523	0.791069
	C647	C	0.016782	-0.376919	0.799272
	C648	C	0.067298	-0.124634	0.728366
	C649	C	0.054773	-0.125295	0.720818
	C650	C	0.048640	-0.035756	0.718581
	C651	C	0.036867	-0.036464	0.713595
	C652	C	0.030884	-0.126631	0.710641
	C653	C	0.037050	-0.215889	0.712834
	C654	C	0.048822	-0.215481	0.717834
	C655	C	0.018340	-0.126992	0.702954
	C656	C	0.102465	-0.125201	0.730180
	C657	C	0.115283	-0.124971	0.725308
	C658	C	0.121457	-0.214644	0.724341
	C659	C	0.133393	-0.214346	0.721938
	C660	C	0.139472	-0.124372	0.720270
	C661	C	0.133323	-0.034645	0.721366
	C662	C	0.121383	-0.035081	0.723770
	C663	C	0.152244	-0.123604	0.715227
	H664	H	0.138028	-0.284051	0.721333
	H665	H	0.116885	-0.284790	0.725506
	H666	H	0.136421	-0.214287	0.804052
	H667	H	0.115625	-0.214707	0.795058
	H668	H	0.084967	-0.374825	0.716922
	H669	H	0.083964	-0.125106	0.797451
	H670	H	-0.000504	-0.126734	0.786105
	H671	H	0.169576	-0.373125	0.728413
	H672	H	0.053426	-0.285234	0.719260
	H673	H	0.032576	-0.286180	0.710488
	H674	H	0.030971	-0.216542	0.793292
	H675	H	0.052124	-0.215590	0.788934
	H676	H	0.032290	0.033561	0.711910
	H677	H	0.053117	0.034255	0.720623
	H678	H	0.052390	-0.535449	0.790527
	H679	H	0.031215	-0.536496	0.794783
	H680	H	0.115770	-0.534293	0.794376
	H681	H	0.136604	-0.533790	0.803394
	H682	H	0.116718	0.034787	0.724461
	H683	H	0.137870	0.035122	0.720319
	Al684	Al	0.084522	0.000161	0.757180
	Al685	Al	0.084482	0.250135	0.757181
	Al686	Al	0.001105	0.248237	0.674104
	Al687	Al	0.001158	-0.001751	0.674089
	O688	O	0.096862	0.040734	0.782697
	O689	O	0.084702	0.125256	0.737715
	O690	O	0.084258	0.375203	0.776547
	O691	O	0.155534	0.042007	0.815067
	O692	O	0.071673	0.041179	0.782300
	O693	O	0.011808	0.038647	0.801769
	O694	O	0.071548	0.209603	0.781929
	O695	O	0.072209	0.291268	0.731461
	O696	O	0.013466	0.288805	0.699501
	O697	O	0.096723	0.209167	0.782932
	O698	O	0.097376	0.290549	0.732283
	O699	O	0.157266	0.292945	0.713324
	O700	O	0.011705	0.206965	0.801004
	O701	O	0.072141	0.459517	0.731874
	O702	O	0.013400	0.457221	0.699649
	O703	O	0.157230	0.461085	0.713097
	O704	O	0.097326	0.458746	0.732111
	O705	O	0.155525	0.210298	0.814965
	O706	O	-0.000924	0.373137	0.806772
	O707	O	0.169885	0.126423	0.707746
	C708	C	0.132011	0.215967	0.801549
	C709	C	0.138088	0.126169	0.804112
	C710	C	0.132065	0.036228	0.801332
	C711	C	0.120303	0.035965	0.796203
	C712	C	0.114223	0.125644	0.793684
	C713	C	0.120236	0.215643	0.796424
	C714	C	0.101721	0.125074	0.785782
	C715	C	0.150590	0.126054	0.811851
	C716	C	0.066583	0.125092	0.784309
	C717	C	0.053760	0.124774	0.789263
	C718	C	0.047563	0.214467	0.790192
	C719	C	0.035619	0.213557	0.792599
	C720	C	0.029605	0.123096	0.794389
	C721	C	0.035802	0.033418	0.793299
	C722	C	0.047736	0.034257	0.790857
	C723	C	0.016784	0.122926	0.799254
	C724	C	0.067246	0.375492	0.728568
	C725	C	0.054697	0.375064	0.721145
	C726	C	0.048565	0.464714	0.718671
	C727	C	0.036796	0.464223	0.713587
	C728	C	0.030858	0.373876	0.710576
	C729	C	0.037012	0.284189	0.712696
	C730	C	0.048776	0.284840	0.717773
	C731	C	0.018333	0.373171	0.702782
	C732	C	0.102397	0.374883	0.730167
	C733	C	0.115211	0.375135	0.725395
	C734	C	0.121382	0.285655	0.724159
	C735	C	0.133328	0.286272	0.721729
	C736	C	0.139391	0.376337	0.720447
	C737	C	0.133209	0.465685	0.721588
	C738	C	0.121282	0.465200	0.724015
	C739	C	0.152195	0.376916	0.715348
	H740	H	0.137960	0.216475	0.720850
	H741	H	0.116800	0.215611	0.725042
	H742	H	0.136522	0.285942	0.803742
	H743	H	0.115679	0.285565	0.794680
	H744	H	0.084900	0.125226	0.716898
	H745	H	0.083894	0.375334	0.797396
	H746	H	-0.000680	0.374000	0.785933
	H747	H	0.169356	0.126284	0.728444
	H748	H	0.053387	0.215135	0.719375
	H749	H	0.032546	0.213596	0.710536
	H750	H	0.030928	0.283209	0.793262
	H751	H	0.052073	0.284558	0.789016
	H752	H	0.032169	0.534180	0.712041
	H753	H	0.052999	0.534986	0.720961
	H754	H	0.052418	-0.035537	0.790191
	H755	H	0.031283	-0.036952	0.794522
	H756	H	0.115779	-0.034139	0.794276
	H757	H	0.136560	-0.034047	0.803346
	H758	H	0.116630	0.534999	0.724861
	H759	H	0.137768	0.535902	0.720601
	Al760	Al	0.082160	-0.499993	0.909565
	Al761	Al	0.082185	-0.250148	0.909358
	Al762	Al	-0.001160	-0.251982	0.826325
	Al763	Al	-0.001135	-0.502022	0.826272
	O764	O	0.094543	-0.459363	0.935037
	O765	O	0.082443	-0.375266	0.890103
	O766	O	0.081887	-0.125128	0.928987
	O767	O	0.153226	-0.457826	0.966868
	O768	O	0.069373	-0.458363	0.934768
	O769	O	0.009479	-0.461242	0.953495
	O770	O	0.069205	-0.290040	0.933987
	O771	O	0.069967	-0.208601	0.883559
	O772	O	0.011194	-0.211237	0.851894
	O773	O	0.094368	-0.291071	0.935330
	O774	O	0.095097	-0.209251	0.884676
	O775	O	0.154950	-0.207550	0.865931
	O776	O	0.009395	-0.292893	0.953111
	O777	O	0.069828	-0.040308	0.884066
	O778	O	0.011092	-0.043051	0.852054
	O779	O	0.154902	-0.039020	0.865546
	O780	O	0.094996	-0.040883	0.884270
	O781	O	0.153133	-0.289644	0.967492
	O782	O	-0.003189	-0.127213	0.958564
	O783	O	0.167471	-0.373636	0.860268
	C784	C	0.129620	-0.283995	0.953959
	C785	C	0.135718	-0.373647	0.956386
	C786	C	0.129733	-0.463608	0.953410
	C787	C	0.117969	-0.464172	0.948405
	C788	C	0.111891	-0.374468	0.945957
	C789	C	0.117865	-0.284415	0.948929
	C790	C	0.099352	-0.374801	0.938404
	C791	C	0.148255	-0.373658	0.964028
	C792	C	0.064238	-0.374318	0.936405
	C793	C	0.051433	-0.375231	0.941375
	C794	C	0.045230	-0.285609	0.942337
	C795	C	0.033307	-0.286151	0.944805
	C796	C	0.027265	-0.376325	0.946374
	C797	C	0.033448	-0.465825	0.945310
	C798	C	0.045381	-0.465391	0.942855
	C799	C	0.014471	-0.377016	0.951301
	C800	C	0.064998	-0.124613	0.880577
	C801	C	0.052455	-0.125017	0.872971
	C802	C	0.046340	-0.035387	0.870562
	C803	C	0.034572	-0.036015	0.865540
	C804	C	0.028592	-0.126083	0.862725
	C805	C	0.034698	-0.215633	0.865070
	C806	C	0.046472	-0.214999	0.870102
	C807	C	0.016039	-0.126937	0.855102
	C808	C	0.100100	-0.124973	0.882497
	C809	C	0.112914	-0.124415	0.877503
	C810	C	0.119087	-0.214106	0.876643
	C811	C	0.131035	-0.213885	0.874325
	C812	C	0.137079	-0.123687	0.872759
	C813	C	0.130902	-0.033984	0.873694
	C814	C	0.118965	-0.034199	0.876014
	C815	C	0.149882	-0.123287	0.867730
	H816	H	0.135691	-0.283602	0.873623
	H817	H	0.114529	-0.284291	0.877797
	H818	H	0.134112	-0.213717	0.955986
	H819	H	0.113265	-0.214745	0.947089
	H820	H	0.082778	-0.375402	0.869370
	H821	H	0.081286	-0.125530	0.949738
	H822	H	-0.002624	-0.127024	0.937803
	H823	H	0.166817	-0.373558	0.881032
	H824	H	0.051056	-0.284507	0.871901
	H825	H	0.030216	-0.285816	0.863011
	H826	H	0.028642	-0.216578	0.945473
	H827	H	0.049796	-0.215446	0.941144
	H828	H	0.029954	0.033964	0.863850
	H829	H	0.050801	0.035062	0.872717
	H830	H	0.050040	-0.535317	0.942121
	H831	H	0.028903	-0.536059	0.946395
	H832	H	0.113472	-0.534321	0.946233
	H833	H	0.134325	-0.533576	0.954953
	H834	H	0.114320	0.035552	0.876640
	H835	H	0.135479	0.036171	0.872517
	Al836	Al	0.082162	-0.000181	0.909594
	Al837	Al	0.082186	0.249647	0.909726
	Al838	Al	-0.001101	0.248084	0.826085
	Al839	Al	-0.001174	-0.002008	0.826335
	O840	O	0.094538	0.040766	0.935022
	O841	O	0.082452	0.124897	0.890299
	O842	O	0.081957	0.374816	0.929143
	O843	O	0.153275	0.042080	0.967022
	O844	O	0.069366	0.041216	0.934853
	O845	O	0.009402	0.038859	0.953225
	O846	O	0.069219	0.209416	0.934277
	O847	O	0.069976	0.291082	0.883580
	O848	O	0.011223	0.288720	0.851614
	O849	O	0.094434	0.208966	0.935520
	O850	O	0.095102	0.290441	0.884974
	O851	O	0.154918	0.292333	0.865667
	O852	O	0.009324	0.206924	0.953014
	O853	O	0.069802	0.459392	0.884189
	O854	O	0.011122	0.456848	0.852016
	O855	O	0.154868	0.460611	0.865284
	O856	O	0.094980	0.458602	0.884420
	O857	O	0.153188	0.210366	0.967121
	O858	O	-0.003271	0.372710	0.958787
	O859	O	0.167555	0.126300	0.860239
	C860	C	0.129679	0.215570	0.954007
	C861	C	0.135787	0.125836	0.956283
	C862	C	0.129790	0.035795	0.953469
	C863	C	0.118013	0.035333	0.948472
	C864	C	0.111933	0.125086	0.945940
	C865	C	0.117905	0.215184	0.949047
	C866	C	0.099398	0.124790	0.938465
	C867	C	0.148328	0.125970	0.963903
	C868	C	0.064258	0.124944	0.936668
	C869	C	0.051427	0.124659	0.941498
	C870	C	0.045239	0.214370	0.942303
	C871	C	0.033298	0.213824	0.944570
	C872	C	0.027215	0.123637	0.946222
	C873	C	0.033405	0.033931	0.945403
	C874	C	0.045335	0.034536	0.943115
	C875	C	0.014388	0.123197	0.951013
	C876	C	0.064978	0.375014	0.880791
	C877	C	0.052470	0.374640	0.872897
	C878	C	0.046363	0.464177	0.870480
	C879	C	0.034607	0.463702	0.865402
	C880	C	0.028608	0.373523	0.862670
	C881	C	0.034714	0.284042	0.865146
	C882	C	0.046482	0.284544	0.870174
	C883	C	0.016113	0.372991	0.854845
	C884	C	0.100089	0.374769	0.882605
	C885	C	0.112903	0.375090	0.877720
	C886	C	0.119082	0.285423	0.876653
	C887	C	0.131014	0.285961	0.874264
	C888	C	0.137078	0.376131	0.872682
	C889	C	0.130898	0.465685	0.873491
	C890	C	0.118972	0.465215	0.875843
	C891	C	0.149871	0.376554	0.867572
	H892	H	0.135667	0.215948	0.873733
	H893	H	0.114508	0.215304	0.877930
	H894	H	0.134162	0.285830	0.956098
	H895	H	0.113330	0.285054	0.947424
	H896	H	0.082981	0.124877	0.869498
	H897	H	0.081723	0.374707	0.949932
	H898	H	-0.003030	0.372343	0.938096
	H899	H	0.167132	0.126138	0.881032
	H900	H	0.051051	0.214581	0.872164
	H901	H	0.030242	0.213810	0.863102
	H902	H	0.028641	0.283494	0.945171
	H903	H	0.049795	0.284708	0.941199
	H904	H	0.030042	0.533594	0.863567
	H905	H	0.050840	0.534525	0.872697
	H906	H	0.050027	-0.035286	0.942601
	H907	H	0.028846	-0.036218	0.946611
	H908	H	0.113524	-0.034910	0.946458
	H909	H	0.134379	-0.033960	0.955144
	H910	H	0.114322	0.534877	0.876568
	H911	H	0.135476	0.535933	0.872320
	Al912	Al	0.248844	-0.497755	0.075889
	Al913	Al	0.248869	-0.247754	0.075648
	Al914	Al	0.165468	-0.248987	-0.006834
	Al915	Al	0.165427	-0.498818	-0.007196
	O916	O	0.261146	-0.456933	0.101395
	O917	O	0.249097	-0.372977	0.056207
	O918	O	0.248588	-0.123156	0.095161
	O919	O	0.319915	-0.456182	0.133372
	O920	O	0.235994	-0.456501	0.100735
	O921	O	0.176135	-0.458258	0.120029
	O922	O	0.235914	-0.288406	0.100302
	O923	O	0.236614	-0.206900	0.049851
	O924	O	0.177803	-0.208513	0.018601
	O925	O	0.261089	-0.288784	0.101445
	O926	O	0.261799	-0.207068	0.050912
	O927	O	0.321716	-0.206608	0.032001
	O928	O	0.176044	-0.289937	0.119745
	O929	O	0.236563	-0.038628	0.050156
	O930	O	0.177682	-0.040140	0.018777
	O931	O	0.321628	-0.038220	0.031835
	O932	O	0.261829	-0.038565	0.050981
	O933	O	0.319859	-0.288005	0.133666
	O934	O	0.163444	-0.124139	0.125431
	O935	O	0.334241	-0.372358	0.026356
	C936	C	0.296327	-0.282594	0.120507
	C937	C	0.302445	-0.372331	0.122727
	C938	C	0.296421	-0.462247	0.119923
	C939	C	0.284639	-0.462274	0.114775
	C940	C	0.278541	-0.372577	0.112409
	C941	C	0.284562	-0.282818	0.115388
	C942	C	0.266045	-0.372697	0.104586
	C943	C	0.314968	-0.372101	0.130482
	C944	C	0.230909	-0.372517	0.102709
	C945	C	0.218129	-0.372717	0.107793
	C946	C	0.211960	-0.282982	0.109010
	C947	C	0.200024	-0.283267	0.111410
	C948	C	0.193939	-0.373385	0.112877
	C949	C	0.200105	-0.463098	0.111907
	C950	C	0.212046	-0.462705	0.109555
	C951	C	0.181126	-0.373795	0.117776
	C952	C	0.231679	-0.122868	0.046799
	C953	C	0.219119	-0.123137	0.039357
	C954	C	0.213014	-0.033311	0.036983
	C955	C	0.201232	-0.033693	0.032077
	C956	C	0.195232	-0.123855	0.029189
	C957	C	0.201331	-0.213715	0.031690
	C958	C	0.213108	-0.213306	0.036593
	C959	C	0.182665	-0.124146	0.021723
	C960	C	0.266860	-0.122980	0.048792
	C961	C	0.279668	-0.122995	0.044078
	C962	C	0.285807	-0.212867	0.042884
	C963	C	0.297738	-0.212825	0.040520
	C964	C	0.303830	-0.122735	0.039149
	C965	C	0.297692	-0.032742	0.040192
	C966	C	0.285750	-0.032920	0.042573
	C967	C	0.316633	-0.122681	0.034104
	H968	H	0.302351	-0.282617	0.039889
	H969	H	0.281210	-0.283060	0.043861
	H970	H	0.300808	-0.212391	0.122784
	H971	H	0.280031	-0.212562	0.113518
	H972	H	0.249535	-0.373429	0.035506
	H973	H	0.248146	-0.123183	0.115848
	H974	H	0.163976	-0.123347	0.104670
	H975	H	0.333855	-0.372052	0.047271
	H976	H	0.217704	-0.283031	0.038346
	H977	H	0.196838	-0.284018	0.029769
	H978	H	0.195367	-0.213377	0.112059
	H979	H	0.216526	-0.212673	0.107873
	H980	H	0.196638	0.036004	0.030449
	H981	H	0.217515	0.036962	0.039009
	H982	H	0.216685	-0.532374	0.108907
	H983	H	0.195548	-0.533295	0.113034
	H984	H	0.280135	-0.532539	0.112471
	H985	H	0.300976	-0.532131	0.121714
	H986	H	0.281125	0.037069	0.043402
	H987	H	0.302291	0.037378	0.039261
	Al988	Al	0.248894	0.002159	0.075853
	Al989	Al	0.248851	0.252414	0.075897
	Al990	Al	0.165464	0.251040	-0.007239
	Al991	Al	0.165478	0.000760	-0.007053
	O992	O	0.261147	0.042930	0.101412
	O993	O	0.249112	0.127282	0.056313
	O994	O	0.248558	0.377676	0.095328
	O995	O	0.319879	0.043263	0.133629
	O996	O	0.236006	0.042986	0.100775
	O997	O	0.176095	0.041240	0.119946
	O998	O	0.235941	0.211311	0.100608
	O999	O	0.236549	0.293229	0.050212
	O1000	O	0.177760	0.291506	0.018433
	O1001	O	0.261125	0.211182	0.101615
	O1002	O	0.261707	0.292789	0.051018
	O1003	O	0.321619	0.293764	0.032144
	O1004	O	0.176099	0.209711	0.119902
	O1005	O	0.236480	0.461336	0.050357
	O1006	O	0.177691	0.459919	0.018490
	O1007	O	0.321598	0.462141	0.031911
	O1008	O	0.261689	0.461021	0.051012
	O1009	O	0.319847	0.211677	0.133717
	O1010	O	0.163423	0.375619	0.125243
	O1011	O	0.334307	0.127910	0.026497
	C1012	C	0.296350	0.217055	0.120361
	C1013	C	0.302425	0.127210	0.122801
	C1014	C	0.296423	0.037342	0.119745
	C1015	C	0.284652	0.037078	0.114603
	C1016	C	0.278575	0.126972	0.112340
	C1017	C	0.284577	0.216980	0.115229
	C1018	C	0.266033	0.126890	0.104738
	C1019	C	0.314941	0.127474	0.130583
	C1020	C	0.230953	0.126901	0.102742
	C1021	C	0.218141	0.126332	0.107708
	C1022	C	0.211951	0.216142	0.108841
	C1023	C	0.200013	0.215701	0.111297
	C1024	C	0.193929	0.125590	0.112738
	C1025	C	0.200118	0.035804	0.111614
	C1026	C	0.212044	0.036108	0.109180
	C1027	C	0.181130	0.125381	0.117755
	C1028	C	0.231588	0.377206	0.047168
	C1029	C	0.219033	0.376944	0.039595
	C1030	C	0.212955	0.466571	0.037129
	C1031	C	0.201189	0.466248	0.032076
	C1032	C	0.195196	0.376357	0.029330
	C1033	C	0.201270	0.286670	0.031714
	C1034	C	0.213039	0.286931	0.036794
	C1035	C	0.182657	0.375716	0.021586
	C1036	C	0.266730	0.377151	0.048834
	C1037	C	0.279533	0.377183	0.043879
	C1038	C	0.285699	0.287448	0.042875
	C1039	C	0.297640	0.287584	0.040550
	C1040	C	0.303754	0.377700	0.039053
	C1041	C	0.297579	0.467385	0.039995
	C1042	C	0.285638	0.467243	0.042308
	C1043	C	0.316582	0.377913	0.034113
	H1044	H	0.302299	0.217503	0.039973
	H1045	H	0.281131	0.217504	0.044067
	H1046	H	0.300889	0.287222	0.122285
	H1047	H	0.280063	0.287202	0.113182
	H1048	H	0.249524	0.126684	0.035545
	H1049	H	0.248078	0.377403	0.116097
	H1050	H	0.163557	0.376214	0.104397
	H1051	H	0.334035	0.127561	0.047245
	H1052	H	0.217588	0.216849	0.038680
	H1053	H	0.196770	0.216631	0.029559
	H1054	H	0.195341	0.285552	0.112179
	H1055	H	0.216532	0.286393	0.107827
	H1056	H	0.196631	0.536494	0.030236
	H1057	H	0.217450	0.536671	0.039340
	H1058	H	0.216675	-0.033829	0.108411
	H1059	H	0.195553	-0.034355	0.112741
	H1060	H	0.280185	-0.032894	0.112117
	H1061	H	0.300961	-0.032957	0.121215
	H1062	H	0.280989	0.537119	0.043106
	H1063	H	0.302151	0.537381	0.039028
	Al1064	Al	0.246599	-0.498323	0.228351
	Al1065	Al	0.246531	-0.248141	0.228338
	Al1066	Al	0.163225	-0.248854	0.144835
	Al1067	Al	0.163224	-0.499231	0.144737
	O1068	O	0.258845	-0.456860	0.253857
	O1069	O	0.246705	-0.373136	0.208906
	O1070	O	0.246332	-0.123360	0.247833
	O1071	O	0.317535	-0.456144	0.286366
	O1072	O	0.233676	-0.457642	0.253345
	O1073	O	0.173897	-0.459092	0.273673
	O1074	O	0.233706	-0.289280	0.253390
	O1075	O	0.234262	-0.207113	0.202655
	O1076	O	0.175577	-0.207756	0.170346
	O1077	O	0.258861	-0.288744	0.253849
	O1078	O	0.259458	-0.207180	0.203453
	O1079	O	0.319286	-0.206408	0.184095
	O1080	O	0.173812	-0.290753	0.273322
	O1081	O	0.234197	-0.038709	0.202931
	O1082	O	0.175446	-0.039632	0.170549
	O1083	O	0.319307	-0.038011	0.184263
	O1084	O	0.259378	-0.038844	0.203482
	O1085	O	0.317500	-0.287894	0.286416
	O1086	O	0.161263	-0.124725	0.280552
	O1087	O	0.331948	-0.372249	0.178529
	C1088	C	0.294035	-0.282654	0.272689
	C1089	C	0.300104	-0.372385	0.275429
	C1090	C	0.294105	-0.462449	0.272514
	C1091	C	0.282344	-0.462710	0.267364
	C1092	C	0.276265	-0.372927	0.264796
	C1093	C	0.282290	-0.282904	0.267500
	C1094	C	0.263769	-0.372791	0.257107
	C1095	C	0.312587	-0.371989	0.283215
	C1096	C	0.228657	-0.373351	0.255492
	C1097	C	0.215868	-0.373507	0.260787
	C1098	C	0.209732	-0.283922	0.262194
	C1099	C	0.197801	-0.284338	0.264912
	C1100	C	0.191705	-0.374352	0.266264
	C1101	C	0.197854	-0.463961	0.265100
	C1102	C	0.209792	-0.463539	0.262384
	C1103	C	0.178893	-0.374773	0.271386
	C1104	C	0.229299	-0.122998	0.199692
	C1105	C	0.216763	-0.123089	0.192156
	C1106	C	0.210677	-0.033381	0.189731
	C1107	C	0.198937	-0.033266	0.184551
	C1108	C	0.192927	-0.123107	0.181528
	C1109	C	0.198987	-0.212814	0.184134
	C1110	C	0.210735	-0.212906	0.189327
	C1111	C	0.180416	-0.123641	0.173724
	C1112	C	0.264472	-0.122872	0.201340
	C1113	C	0.277253	-0.122324	0.196187
	C1114	C	0.283404	-0.212100	0.195117
	C1115	C	0.295331	-0.211988	0.192614
	C1116	C	0.301448	-0.122051	0.191156
	C1117	C	0.295282	-0.032157	0.192313
	C1118	C	0.283349	-0.032238	0.194794
	C1119	C	0.314256	-0.122218	0.186225
	H1120	H	0.299952	-0.282209	0.191849
	H1121	H	0.278834	-0.282295	0.196251
	H1122	H	0.298528	-0.212515	0.274647
	H1123	H	0.277747	-0.212974	0.265454
	H1124	H	0.246895	-0.373371	0.188103
	H1125	H	0.246178	-0.123228	0.268497
	H1126	H	0.161503	-0.125320	0.259823
	H1127	H	0.331847	-0.372480	0.199368
	H1128	H	0.215294	-0.282884	0.191070
	H1129	H	0.194479	-0.282835	0.181918
	H1130	H	0.193196	-0.214368	0.265975
	H1131	H	0.214296	-0.213691	0.261046
	H1132	H	0.194370	0.036722	0.182725
	H1133	H	0.215217	0.036578	0.191784
	H1134	H	0.214421	-0.533577	0.261449
	H1135	H	0.193294	-0.534016	0.266322
	H1136	H	0.277838	-0.532768	0.265142
	H1137	H	0.298686	-0.532367	0.274297
	H1138	H	0.278713	0.037501	0.195735
	H1139	H	0.299889	0.037817	0.191316
	Al1140	Al	0.246535	0.002016	0.228460
	Al1141	Al	0.246579	0.251817	0.228538
	Al1142	Al	0.163232	0.250761	0.144786
	Al1143	Al	0.163174	0.000861	0.144750
	O1144	O	0.258920	0.042558	0.253812
	O1145	O	0.246780	0.126770	0.208990
	O1146	O	0.246290	0.376698	0.247794
	O1147	O	0.317626	0.043548	0.286022
	O1148	O	0.233689	0.042856	0.253457
	O1149	O	0.173899	0.040924	0.273535
	O1150	O	0.233661	0.211182	0.253457
	O1151	O	0.234289	0.292367	0.202622
	O1152	O	0.175578	0.291583	0.170311
	O1153	O	0.258819	0.210873	0.254207
	O1154	O	0.259464	0.292602	0.203700
	O1155	O	0.319330	0.294020	0.184035
	O1156	O	0.173823	0.209383	0.273484
	O1157	O	0.234211	0.460755	0.202842
	O1158	O	0.175460	0.459756	0.170491
	O1159	O	0.319311	0.462176	0.184099
	O1160	O	0.259467	0.460951	0.203465
	O1161	O	0.317601	0.211794	0.286154
	O1162	O	0.161345	0.375489	0.280774
	O1163	O	0.331908	0.127801	0.178758
	C1164	C	0.294089	0.217365	0.272841
	C1165	C	0.300154	0.127629	0.275406
	C1166	C	0.294143	0.037821	0.272639
	C1167	C	0.282398	0.037701	0.267480
	C1168	C	0.276315	0.127385	0.264900
	C1169	C	0.282328	0.217366	0.267641
	C1170	C	0.263778	0.126768	0.257207
	C1171	C	0.312686	0.127439	0.283074
	C1172	C	0.228653	0.127020	0.255617
	C1173	C	0.215833	0.126893	0.260827
	C1174	C	0.209659	0.216664	0.262204
	C1175	C	0.197737	0.216233	0.264796
	C1176	C	0.191674	0.126030	0.266223
	C1177	C	0.197849	0.036417	0.264986
	C1178	C	0.209760	0.036763	0.262343
	C1179	C	0.178872	0.125356	0.271360
	C1180	C	0.229307	0.376475	0.199601
	C1181	C	0.216810	0.376492	0.191751
	C1182	C	0.210745	0.466409	0.189262
	C1183	C	0.198984	0.466385	0.184110
	C1184	C	0.192967	0.376479	0.181226
	C1185	C	0.199016	0.286652	0.183990
	C1186	C	0.210776	0.286639	0.189134
	C1187	C	0.180436	0.376022	0.173625
	C1188	C	0.264484	0.376735	0.201371
	C1189	C	0.277285	0.376924	0.196257
	C1190	C	0.283451	0.287287	0.194936
	C1191	C	0.295396	0.287665	0.192475
	C1192	C	0.301485	0.377665	0.191202
	C1193	C	0.295329	0.467270	0.192449
	C1194	C	0.283391	0.466957	0.194920
	C1195	C	0.314266	0.378026	0.186263
	H1196	H	0.300033	0.217929	0.191517
	H1197	H	0.278890	0.217036	0.195817
	H1198	H	0.298609	0.287238	0.274820
	H1199	H	0.277780	0.287396	0.265678
	H1200	H	0.247044	0.126785	0.188213
	H1201	H	0.245921	0.376766	0.268533
	H1202	H	0.161572	0.375544	0.260078
	H1203	H	0.331569	0.128263	0.199640
	H1204	H	0.215315	0.216695	0.190986
	H1205	H	0.194522	0.216614	0.181900
	H1206	H	0.193084	0.285810	0.265789
	H1207	H	0.214263	0.286756	0.261211
	H1208	H	0.194428	0.536348	0.182147
	H1209	H	0.215246	0.536455	0.191311
	H1210	H	0.214407	-0.033005	0.261486
	H1211	H	0.193294	-0.033797	0.266078
	H1212	H	0.277912	-0.032405	0.265376
	H1213	H	0.298670	-0.032233	0.274426
	H1214	H	0.278762	0.536851	0.195758
	H1215	H	0.299851	0.537449	0.191488
	Al1216	Al	0.244664	-0.498001	0.382854
	Al1217	Al	0.244709	-0.249091	0.383137
	Al1218	Al	0.161354	-0.249138	0.299831
	Al1219	Al	0.161370	-0.499662	0.300126
	O1220	O	0.257342	-0.457693	0.407061
	O1221	O	0.244675	-0.373425	0.363697
	O1222	O	0.245139	-0.123634	0.402552
	O1223	O	0.315436	-0.456782	0.442683
	O1224	O	0.233068	-0.457602	0.411840
	O1225	O	0.183715	-0.457766	0.505239
	O1226	O	0.233051	-0.289613	0.411679
	O1227	O	0.232143	-0.207549	0.359332
	O1228	O	0.174040	-0.209283	0.324147
	O1229	O	0.257322	-0.289370	0.407670
	O1230	O	0.257236	-0.207723	0.356766
	O1231	O	0.317044	-0.206670	0.336800
	O1232	O	0.183646	-0.289652	0.504828
	O1233	O	0.231998	-0.039018	0.359738
	O1234	O	0.173899	-0.040928	0.324407
	O1235	O	0.316932	-0.038394	0.336414
	O1236	O	0.257100	-0.039464	0.356562
	O1237	O	0.315391	-0.288343	0.442635
	O1238	O	0.171659	-0.122768	0.514371
	O1239	O	0.329687	-0.371957	0.331254
	C1240	C	0.292057	-0.283550	0.429507
	C1241	C	0.298094	-0.373136	0.432055
	C1242	C	0.292207	-0.463216	0.428616
	C1243	C	0.280560	-0.463410	0.422425
	C1244	C	0.274542	-0.373706	0.419591
	C1245	C	0.280428	-0.283713	0.423349
	C1246	C	0.262153	-0.373537	0.410843
	C1247	C	0.310540	-0.372839	0.439735
	C1248	C	0.228875	-0.373629	0.419474
	C1249	C	0.218311	-0.373438	0.439654
	C1250	C	0.213206	-0.284696	0.449018
	C1251	C	0.203402	-0.284809	0.467564
	C1252	C	0.198419	-0.373881	0.477154
	C1253	C	0.203575	-0.462572	0.468029
	C1254	C	0.213382	-0.462322	0.449508
	C1255	C	0.187850	-0.373765	0.497312
	C1256	C	0.227180	-0.123428	0.356522
	C1257	C	0.214761	-0.123680	0.348775
	C1258	C	0.208746	-0.034177	0.345857
	C1259	C	0.197110	-0.034480	0.339628
	C1260	C	0.191204	-0.124451	0.336321
	C1261	C	0.197176	-0.214037	0.339601
	C1262	C	0.208836	-0.213682	0.345840
	C1263	C	0.178820	-0.124742	0.327649
	C1264	C	0.262207	-0.123396	0.354595
	C1265	C	0.275006	-0.122934	0.349457
	C1266	C	0.281142	-0.212543	0.348367
	C1267	C	0.293056	-0.212356	0.345677
	C1268	C	0.299173	-0.122644	0.343945
	C1269	C	0.293035	-0.032974	0.345280
	C1270	C	0.281116	-0.033239	0.348004
	C1271	C	0.311978	-0.122628	0.338788
	H1272	H	0.297668	-0.281902	0.344723
	H1273	H	0.276536	-0.282278	0.349513
	H1274	H	0.296530	-0.214177	0.432325
	H1275	H	0.275878	-0.213925	0.421210
	H1276	H	0.244931	-0.373510	0.342865
	H1277	H	0.246031	-0.123928	0.423139
	H1278	H	0.171053	-0.122569	0.493757
	H1279	H	0.329236	-0.371879	0.351984
	H1280	H	0.213396	-0.282853	0.348359
	H1281	H	0.192682	-0.284031	0.337140
	H1282	H	0.199563	-0.216141	0.474829
	H1283	H	0.216977	-0.215782	0.441628
	H1284	H	0.192613	0.035241	0.337235
	H1285	H	0.213190	0.035861	0.348379
	H1286	H	0.217270	-0.531015	0.442581
	H1287	H	0.199884	-0.531411	0.475627
	H1288	H	0.276061	-0.532935	0.419560
	H1289	H	0.296794	-0.532635	0.430752
	H1290	H	0.276488	0.036363	0.348885
	H1291	H	0.297654	0.036692	0.344047
	Al1292	Al	0.244695	0.001924	0.383331
	Al1293	Al	0.244718	0.251285	0.383125
	Al1294	Al	0.161356	0.250869	0.300086
	Al1295	Al	0.161354	0.000375	0.299692
	O1296	O	0.257336	0.042359	0.407528
	O1297	O	0.244575	0.126463	0.364055
	O1298	O	0.245111	0.376911	0.402287
	O1299	O	0.315558	0.043798	0.441893
	O1300	O	0.233072	0.042954	0.412097
	O1301	O	0.183675	0.043003	0.505291
	O1302	O	0.232964	0.210968	0.411534
	O1303	O	0.232165	0.292663	0.358985
	O1304	O	0.174058	0.290825	0.324353
	O1305	O	0.257250	0.210998	0.408033
	O1306	O	0.257290	0.291992	0.356739
	O1307	O	0.317070	0.293581	0.336464
	O1308	O	0.183598	0.210853	0.505281
	O1309	O	0.232045	0.461104	0.359131
	O1310	O	0.173844	0.459251	0.325079
	O1311	O	0.317034	0.461631	0.336740
	O1312	O	0.257216	0.460527	0.356281
	O1313	O	0.315395	0.212196	0.442528
	O1314	O	0.171687	0.376776	0.514573
	O1315	O	0.329670	0.127437	0.331124
	C1316	C	0.292088	0.216711	0.429402
	C1317	C	0.298134	0.127125	0.431800
	C1318	C	0.292230	0.037082	0.428615
	C1319	C	0.280576	0.036885	0.422571
	C1320	C	0.274545	0.126611	0.419696
	C1321	C	0.280419	0.216494	0.423386
	C1322	C	0.262130	0.126675	0.411183
	C1323	C	0.310589	0.127791	0.439311
	C1324	C	0.228841	0.127156	0.419514
	C1325	C	0.218240	0.126960	0.439550
	C1326	C	0.213119	0.216061	0.448811
	C1327	C	0.203310	0.216041	0.467425
	C1328	C	0.198334	0.127108	0.477182
	C1329	C	0.203451	0.038140	0.467961
	C1330	C	0.213277	0.038052	0.449338
	C1331	C	0.187812	0.127032	0.497512
	C1332	C	0.227191	0.376562	0.356183
	C1333	C	0.214765	0.376269	0.348539
	C1334	C	0.208750	0.465834	0.345969
	C1335	C	0.197072	0.465666	0.340029
	C1336	C	0.191173	0.375768	0.336635
	C1337	C	0.197179	0.286182	0.339573
	C1338	C	0.208829	0.286545	0.345518
	C1339	C	0.178789	0.375146	0.328133
	C1340	C	0.262296	0.376246	0.354469
	C1341	C	0.275074	0.376538	0.349515
	C1342	C	0.281233	0.286892	0.348470
	C1343	C	0.293164	0.287009	0.345785
	C1344	C	0.299232	0.377092	0.344116
	C1345	C	0.293095	0.466707	0.345552
	C1346	C	0.281162	0.466402	0.348170
	C1347	C	0.312042	0.377453	0.338798
	H1348	H	0.297786	0.217258	0.344790
	H1349	H	0.276688	0.216769	0.349499
	H1350	H	0.296564	0.286483	0.432148
	H1351	H	0.275822	0.285753	0.421325
	H1352	H	0.244495	0.126308	0.343197
	H1353	H	0.245993	0.376834	0.422873
	H1354	H	0.171122	0.376851	0.493897
	H1355	H	0.329525	0.127296	0.351910
	H1356	H	0.213402	0.216994	0.347709
	H1357	H	0.192726	0.216594	0.337114
	H1358	H	0.199507	0.285172	0.474548
	H1359	H	0.216826	0.285167	0.441338
	H1360	H	0.192503	0.534888	0.337852
	H1361	H	0.213248	0.535224	0.348599
	H1362	H	0.217109	-0.030877	0.442344
	H1363	H	0.199758	-0.030809	0.475622
	H1364	H	0.276132	-0.033098	0.419938
	H1365	H	0.296833	-0.032361	0.430841
	H1366	H	0.276525	0.536073	0.348977
	H1367	H	0.297662	0.536926	0.344284
	Al1368	Al	0.255358	-0.497656	0.616967
	Al1369	Al	0.255300	-0.246768	0.617108
	Al1370	Al	0.172070	-0.248349	0.533621
	Al1371	Al	0.171965	-0.497725	0.533776
	O1372	O	0.267994	-0.456799	0.640756
	O1373	O	0.255067	-0.372133	0.597762
	O1374	O	0.255447	-0.122356	0.636403
	O1375	O	0.325997	-0.456260	0.676409
	O1376	O	0.242896	-0.456233	0.643607
	O1377	O	0.183038	-0.458219	0.663300
	O1378	O	0.242812	-0.287943	0.643556
	O1379	O	0.242760	-0.206133	0.592469
	O1380	O	0.184735	-0.207410	0.557015
	O1381	O	0.267925	-0.288579	0.640917
	O1382	O	0.266981	-0.206108	0.588386
	O1383	O	0.316425	-0.206224	0.495216
	O1384	O	0.182939	-0.289954	0.662764
	O1385	O	0.242619	-0.037838	0.593025
	O1386	O	0.184566	-0.038933	0.557586
	O1387	O	0.316289	-0.038213	0.494763
	O1388	O	0.266962	-0.037993	0.588396
	O1389	O	0.325960	-0.287839	0.676404
	O1390	O	0.170370	-0.123611	0.668719
	O1391	O	0.328413	-0.372482	0.485638
	C1392	C	0.302866	-0.282489	0.660709
	C1393	C	0.308807	-0.372075	0.664076
	C1394	C	0.302879	-0.462006	0.660886
	C1395	C	0.291244	-0.462303	0.654613
	C1396	C	0.285303	-0.372618	0.651431
	C1397	C	0.291238	-0.282765	0.654415
	C1398	C	0.272848	-0.372591	0.643778
	C1399	C	0.321168	-0.372185	0.672858
	C1400	C	0.237855	-0.372345	0.645673
	C1401	C	0.225009	-0.372877	0.650714
	C1402	C	0.218837	-0.283340	0.651884
	C1403	C	0.206909	-0.283607	0.654318
	C1404	C	0.200816	-0.373544	0.655604
	C1405	C	0.206981	-0.463196	0.654418
	C1406	C	0.218923	-0.462823	0.651922
	C1407	C	0.188016	-0.373966	0.660860
	C1408	C	0.237839	-0.122094	0.589328
	C1409	C	0.225474	-0.122333	0.580586
	C1410	C	0.219483	-0.032693	0.577588
	C1411	C	0.207856	-0.032780	0.571368
	C1412	C	0.201953	-0.122598	0.568008
	C1413	C	0.207949	-0.212350	0.570839
	C1414	C	0.219589	-0.212200	0.577074
	C1415	C	0.189542	-0.122866	0.560305
	C1416	C	0.271139	-0.122231	0.580565
	C1417	C	0.281729	-0.122162	0.560429
	C1418	C	0.286808	-0.211030	0.551142
	C1419	C	0.296634	-0.210936	0.532616
	C1420	C	0.301618	-0.122002	0.522996
	C1421	C	0.296540	-0.033030	0.532306
	C1422	C	0.286727	-0.033302	0.550860
	C1423	C	0.312179	-0.122038	0.502764
	H1424	H	0.300457	-0.279828	0.525427
	H1425	H	0.283040	-0.280168	0.558409
	H1426	H	0.307343	-0.212593	0.663108
	H1427	H	0.286731	-0.213217	0.651874
	H1428	H	0.254606	-0.372019	0.576966
	H1429	H	0.255498	-0.122051	0.657116
	H1430	H	0.170696	-0.123703	0.648098
	H1431	H	0.329207	-0.372072	0.506407
	H1432	H	0.224153	-0.281712	0.579429
	H1433	H	0.203477	-0.281815	0.568268
	H1434	H	0.202285	-0.214068	0.655386
	H1435	H	0.223390	-0.213020	0.650979
	H1436	H	0.203295	0.036585	0.569275
	H1437	H	0.223923	0.037369	0.580358
	H1438	H	0.223572	-0.532343	0.651030
	H1439	H	0.202435	-0.533251	0.655528
	H1440	H	0.286729	-0.531668	0.652237
	H1441	H	0.307411	-0.531560	0.663413
	H1442	H	0.282862	0.035766	0.557912
	H1443	H	0.300256	0.036046	0.524852
	Al1444	Al	0.255329	0.002471	0.617138
	Al1445	Al	0.255270	0.252929	0.616876
	Al1446	Al	0.171993	0.251711	0.534100
	Al1447	Al	0.171971	0.002950	0.533759
	O1448	O	0.267965	0.043795	0.640761
	O1449	O	0.254906	0.127462	0.597666
	O1450	O	0.255394	0.377530	0.636147
	O1451	O	0.326000	0.043490	0.676219
	O1452	O	0.242828	0.044254	0.643612
	O1453	O	0.182999	0.042296	0.663224
	O1454	O	0.242729	0.212597	0.643263
	O1455	O	0.242815	0.293966	0.591973
	O1456	O	0.184652	0.292434	0.557670
	O1457	O	0.267878	0.212123	0.640830
	O1458	O	0.267001	0.292993	0.588376
	O1459	O	0.316438	0.293168	0.495110
	O1460	O	0.182897	0.210657	0.663011
	O1461	O	0.242678	0.462365	0.592677
	O1462	O	0.184555	0.460917	0.557584
	O1463	O	0.316421	0.461221	0.495137
	O1464	O	0.266968	0.461329	0.588095
	O1465	O	0.326003	0.211825	0.676258
	O1466	O	0.170378	0.376657	0.668955
	O1467	O	0.328376	0.127054	0.485529
	C1468	C	0.302874	0.217758	0.660650
	C1469	C	0.308805	0.127842	0.663911
	C1470	C	0.302879	0.038250	0.660534
	C1471	C	0.291234	0.038315	0.654402
	C1472	C	0.285277	0.128164	0.651414
	C1473	C	0.291217	0.217835	0.654499
	C1474	C	0.272821	0.128152	0.643846
	C1475	C	0.321159	0.127613	0.672687
	C1476	C	0.237768	0.128293	0.645534
	C1477	C	0.224954	0.127741	0.650572
	C1478	C	0.218758	0.217353	0.651564
	C1479	C	0.206831	0.216968	0.654073
	C1480	C	0.200772	0.126850	0.655789
	C1481	C	0.206964	0.037154	0.654638
	C1482	C	0.218886	0.037616	0.652098
	C1483	C	0.187987	0.126563	0.660941
	C1484	C	0.237880	0.378045	0.588926
	C1485	C	0.225486	0.377965	0.580398
	C1486	C	0.219478	0.467623	0.577384
	C1487	C	0.207820	0.467208	0.571323
	C1488	C	0.201922	0.377286	0.568212
	C1489	C	0.207958	0.287685	0.570716
	C1490	C	0.219601	0.287973	0.576777
	C1491	C	0.189489	0.376960	0.560590
	C1492	C	0.271150	0.376860	0.580478
	C1493	C	0.281690	0.377114	0.560283
	C1494	C	0.286850	0.288273	0.551162
	C1495	C	0.296702	0.288451	0.532651
	C1496	C	0.301630	0.377444	0.522885
	C1497	C	0.296501	0.466449	0.532084
	C1498	C	0.286633	0.466317	0.550565
	C1499	C	0.312256	0.377102	0.502892
	H1500	H	0.300591	0.219456	0.525780
	H1501	H	0.283161	0.219049	0.558693
	H1502	H	0.307407	0.287656	0.663301
	H1503	H	0.286695	0.287317	0.652090
	H1504	H	0.254265	0.126605	0.576898
	H1505	H	0.255245	0.377757	0.657051
	H1506	H	0.170731	0.376187	0.648044
	H1507	H	0.328964	0.127128	0.506212
	H1508	H	0.224169	0.218436	0.578774
	H1509	H	0.203485	0.218227	0.567822
	H1510	H	0.202179	0.286702	0.654805
	H1511	H	0.223344	0.287372	0.650369
	H1512	H	0.203262	0.536567	0.569073
	H1513	H	0.223993	0.537267	0.579996
	H1514	H	0.223549	-0.032417	0.651318
	H1515	H	0.202383	-0.032719	0.655832
	H1516	H	0.286736	-0.031187	0.651940
	H1517	H	0.307367	-0.031586	0.663019
	H1518	H	0.282783	0.535303	0.557646
	H1519	H	0.300269	0.535578	0.524762
	Al1520	Al	0.253423	-0.497846	0.771793
	Al1521	Al	0.253465	-0.247896	0.772036
	Al1522	Al	0.170146	-0.248399	0.688022
	Al1523	Al	0.170136	-0.498441	0.688234
	O1524	O	0.265740	-0.457263	0.797290
	O1525	O	0.253558	-0.372628	0.752539
	O1526	O	0.253140	-0.122713	0.791495
	O1527	O	0.324528	-0.456938	0.829090
	O1528	O	0.240532	-0.457186	0.796932
	O1529	O	0.180680	-0.457588	0.815834
	O1530	O	0.240529	-0.288821	0.796877
	O1531	O	0.241197	-0.207093	0.746228
	O1532	O	0.182546	-0.208249	0.713408
	O1533	O	0.265722	-0.288784	0.797552
	O1534	O	0.266269	-0.207471	0.747029
	O1535	O	0.326061	-0.206500	0.726997
	O1536	O	0.180642	-0.289244	0.815652
	O1537	O	0.241079	-0.038681	0.746323
	O1538	O	0.182402	-0.040052	0.713917
	O1539	O	0.326066	-0.038025	0.727073
	O1540	O	0.266239	-0.039262	0.747053
	O1541	O	0.324486	-0.288646	0.829467
	O1542	O	0.168020	-0.123811	0.821260
	O1543	O	0.338664	-0.372217	0.720118
	C1544	C	0.300967	-0.282775	0.816062
	C1545	C	0.307080	-0.372566	0.818461
	C1546	C	0.301043	-0.462604	0.815694
	C1547	C	0.289271	-0.462781	0.810685
	C1548	C	0.283175	-0.372993	0.808295
	C1549	C	0.289206	-0.283066	0.811069
	C1550	C	0.270675	-0.373174	0.800451
	C1551	C	0.319581	-0.372697	0.826177
	C1552	C	0.235491	-0.373085	0.798985
	C1553	C	0.222682	-0.373117	0.803981
	C1554	C	0.216531	-0.283171	0.804876
	C1555	C	0.204596	-0.283197	0.807285
	C1556	C	0.198498	-0.373218	0.808871
	C1557	C	0.204641	-0.463080	0.807758
	C1558	C	0.216565	-0.462950	0.805358
	C1559	C	0.185697	-0.373362	0.813752
	C1560	C	0.236254	-0.123085	0.743034
	C1561	C	0.223760	-0.123492	0.735179
	C1562	C	0.217692	-0.033672	0.732707
	C1563	C	0.205935	-0.033759	0.727586
	C1564	C	0.199931	-0.123850	0.724592
	C1565	C	0.206007	-0.213618	0.727076
	C1566	C	0.217768	-0.213539	0.732280
	C1567	C	0.187387	-0.123897	0.716847
	C1568	C	0.271312	-0.123163	0.744822
	C1569	C	0.284101	-0.122626	0.739472
	C1570	C	0.290238	-0.212362	0.738166
	C1571	C	0.302173	-0.212227	0.735542
	C1572	C	0.308256	-0.122258	0.734113
	C1573	C	0.302126	-0.032359	0.735207
	C1574	C	0.290196	-0.032550	0.737801
	C1575	C	0.321021	-0.122277	0.729151
	H1576	H	0.306774	-0.282119	0.734726
	H1577	H	0.285643	-0.282477	0.739366
	H1578	H	0.305455	-0.212696	0.818278
	H1579	H	0.284644	-0.213132	0.809265
	H1580	H	0.253501	-0.372558	0.731870
	H1581	H	0.252674	-0.122502	0.812151
	H1582	H	0.168382	-0.123681	0.800560
	H1583	H	0.338493	-0.372581	0.740874
	H1584	H	0.222335	-0.283565	0.734023
	H1585	H	0.201508	-0.283820	0.724928
	H1586	H	0.199931	-0.213160	0.808100
	H1587	H	0.221120	-0.213109	0.803774
	H1588	H	0.201395	0.036383	0.725807
	H1589	H	0.222190	0.036274	0.734843
	H1590	H	0.221206	-0.532912	0.804596
	H1591	H	0.200083	-0.533116	0.808879
	H1592	H	0.284737	-0.532756	0.808560
	H1593	H	0.305605	-0.532503	0.817582
	H1594	H	0.285598	0.037442	0.738742
	H1595	H	0.306731	0.037589	0.734063
	Al1596	Al	0.253395	0.002213	0.772096
	Al1597	Al	0.253430	0.252468	0.771824
	Al1598	Al	0.170143	0.251893	0.688399
	Al1599	Al	0.170124	0.001434	0.688200
	O1600	O	0.265768	0.043329	0.797274
	O1601	O	0.253610	0.127078	0.752443
	O1602	O	0.253190	0.377246	0.791241
	O1603	O	0.324445	0.043625	0.829420
	O1604	O	0.240543	0.043244	0.797075
	O1605	O	0.180740	0.042217	0.815886
	O1606	O	0.240526	0.211463	0.796727
	O1607	O	0.241206	0.293297	0.745981
	O1608	O	0.182505	0.292330	0.713782
	O1609	O	0.265735	0.211597	0.797462
	O1610	O	0.266363	0.292891	0.746972
	O1611	O	0.326128	0.293771	0.727388
	O1612	O	0.180682	0.210571	0.815807
	O1613	O	0.241117	0.461478	0.746275
	O1614	O	0.182413	0.460717	0.714173
	O1615	O	0.326076	0.462027	0.727071
	O1616	O	0.266245	0.461243	0.746698
	O1617	O	0.324441	0.211842	0.829574
	O1618	O	0.168054	0.376338	0.821247
	O1619	O	0.338645	0.127758	0.719987
	C1620	C	0.300983	0.217675	0.816043
	C1621	C	0.307007	0.127876	0.818762
	C1622	C	0.301029	0.037874	0.815829
	C1623	C	0.289265	0.037700	0.810708
	C1624	C	0.283211	0.127545	0.808170
	C1625	C	0.289218	0.217579	0.810931
	C1626	C	0.270653	0.127406	0.800521
	C1627	C	0.319541	0.127841	0.826322
	C1628	C	0.235510	0.127342	0.798972
	C1629	C	0.222710	0.127589	0.803844
	C1630	C	0.216554	0.217451	0.805012
	C1631	C	0.204631	0.217070	0.807432
	C1632	C	0.198556	0.126841	0.808807
	C1633	C	0.204710	0.037085	0.807518
	C1634	C	0.216638	0.037393	0.805154
	C1635	C	0.185748	0.126370	0.813646
	C1636	C	0.236239	0.377270	0.743028
	C1637	C	0.223688	0.376822	0.735374
	C1638	C	0.217643	0.466617	0.732865
	C1639	C	0.205885	0.466801	0.727757
	C1640	C	0.199897	0.376715	0.724789
	C1641	C	0.205950	0.286856	0.727194
	C1642	C	0.217704	0.286767	0.732358
	C1643	C	0.187364	0.376674	0.717143
	C1644	C	0.271324	0.377270	0.744629
	C1645	C	0.284100	0.377740	0.739423
	C1646	C	0.290211	0.287818	0.737983
	C1647	C	0.302142	0.288003	0.735503
	C1648	C	0.308247	0.377896	0.734260
	C1649	C	0.302130	0.467870	0.735248
	C1650	C	0.290196	0.467806	0.737765
	C1651	C	0.321055	0.377717	0.729349
	H1652	H	0.306756	0.217890	0.734547
	H1653	H	0.285617	0.217676	0.738992
	H1654	H	0.305473	0.287807	0.818189
	H1655	H	0.284656	0.287752	0.809241
	H1656	H	0.253661	0.126461	0.731578
	H1657	H	0.252867	0.377452	0.811929
	H1658	H	0.168571	0.376262	0.800459
	H1659	H	0.338617	0.127545	0.740644
	H1660	H	0.222264	0.216907	0.734194
	H1661	H	0.201454	0.216851	0.724987
	H1662	H	0.200003	0.286964	0.808349
	H1663	H	0.221159	0.287526	0.804159
	H1664	H	0.201340	0.536936	0.725979
	H1665	H	0.222154	0.536624	0.735030
	H1666	H	0.221274	-0.032446	0.804434
	H1667	H	0.200124	-0.032956	0.808557
	H1668	H	0.284775	-0.032389	0.808844
	H1669	H	0.305561	-0.032145	0.817815
	H1670	H	0.285570	0.537626	0.738664
	H1671	H	0.306747	0.537707	0.734026
	Al1672	Al	0.251095	-0.498036	0.924017
	Al1673	Al	0.251124	-0.247871	0.924060
	Al1674	Al	0.167810	-0.248472	0.840791
	Al1675	Al	0.167799	-0.498662	0.840701
	O1676	O	0.263466	-0.457425	0.949501
	O1677	O	0.251356	-0.372838	0.904613
	O1678	O	0.250900	-0.122852	0.943481
	O1679	O	0.322244	-0.456202	0.981162
	O1680	O	0.238240	-0.456646	0.948818
	O1681	O	0.178400	-0.457894	0.968090
	O1682	O	0.238195	-0.288488	0.948876
	O1683	O	0.238879	-0.206932	0.898250
	O1684	O	0.180114	-0.207392	0.866295
	O1685	O	0.263277	-0.289364	0.950016
	O1686	O	0.264111	-0.207603	0.899474
	O1687	O	0.323941	-0.206646	0.880006
	O1688	O	0.178352	-0.289601	0.968232
	O1689	O	0.238829	-0.038825	0.898441
	O1690	O	0.180124	-0.039284	0.866184
	O1691	O	0.323856	-0.038333	0.879758
	O1692	O	0.263949	-0.039315	0.898803
	O1693	O	0.322125	-0.287811	0.981536
	O1694	O	0.165719	-0.124112	0.973547
	O1695	O	0.336536	-0.372999	0.874479
	C1696	C	0.298630	-0.282784	0.968241
	C1697	C	0.304714	-0.372463	0.970702
	C1698	C	0.298729	-0.462384	0.967703
	C1699	C	0.286960	-0.462423	0.962712
	C1700	C	0.280858	-0.372721	0.960411
	C1701	C	0.286869	-0.282915	0.963233
	C1702	C	0.268299	-0.373212	0.952856
	C1703	C	0.317265	-0.372011	0.978349
	C1704	C	0.233178	-0.372651	0.950921
	C1705	C	0.220387	-0.372933	0.955943
	C1706	C	0.214258	-0.283287	0.956998
	C1707	C	0.202312	-0.283603	0.959443
	C1708	C	0.196219	-0.373412	0.960865
	C1709	C	0.202367	-0.463137	0.959813
	C1710	C	0.214304	-0.462821	0.957350
	C1711	C	0.183422	-0.373639	0.966055
	C1712	C	0.233919	-0.123027	0.895181
	C1713	C	0.221377	-0.123020	0.887610
	C1714	C	0.215289	-0.033327	0.885132
	C1715	C	0.203533	-0.033388	0.880049
	C1716	C	0.197518	-0.123333	0.877198
	C1717	C	0.203610	-0.213143	0.879663
	C1718	C	0.215372	-0.212904	0.884712
	C1719	C	0.185017	-0.123429	0.869403
	C1720	C	0.269077	-0.123143	0.897065
	C1721	C	0.281870	-0.122972	0.892091
	C1722	C	0.288013	-0.212722	0.890882
	C1723	C	0.299939	-0.212565	0.888446
	C1724	C	0.306052	-0.122698	0.887021
	C1725	C	0.299904	-0.032953	0.887973
	C1726	C	0.287975	-0.033078	0.890390
	C1727	C	0.318855	-0.122714	0.882099
	H1728	H	0.304572	-0.282432	0.887665
	H1729	H	0.283430	-0.282899	0.891883
	H1730	H	0.303120	-0.212623	0.970232
	H1731	H	0.282320	-0.212838	0.961299
	H1732	H	0.251724	-0.373014	0.883863
	H1733	H	0.250537	-0.122601	0.964266
	H1734	H	0.166265	-0.124103	0.952772
	H1735	H	0.336046	-0.372817	0.895186
	H1736	H	0.219940	-0.283071	0.886446
	H1737	H	0.199088	-0.283347	0.877622
	H1738	H	0.197693	-0.213628	0.960134
	H1739	H	0.218838	-0.213278	0.955842
	H1740	H	0.198963	0.036467	0.878260
	H1741	H	0.219813	0.036666	0.887252
	H1742	H	0.218921	-0.532990	0.956492
	H1743	H	0.197782	-0.533179	0.960823
	H1744	H	0.282489	-0.532705	0.960321
	H1745	H	0.303324	-0.532335	0.969189
	H1746	H	0.283333	0.037000	0.891032
	H1747	H	0.304496	0.037235	0.886811
	Al1748	Al	0.251117	0.001973	0.923955
	Al1749	Al	0.251114	0.251937	0.923977
	Al1750	Al	0.167797	0.251508	0.840776
	Al1751	Al	0.167811	0.001295	0.840707
	O1752	O	0.263432	0.042603	0.949544
	O1753	O	0.251394	0.126994	0.904604
	O1754	O	0.250858	0.376899	0.943410
	O1755	O	0.322285	0.043941	0.981174
	O1756	O	0.238254	0.043081	0.949079
	O1757	O	0.178401	0.041664	0.968173
	O1758	O	0.238207	0.211278	0.948803
	O1759	O	0.238799	0.293151	0.898459
	O1760	O	0.180047	0.292645	0.866416
	O1761	O	0.263404	0.210728	0.949799
	O1762	O	0.264055	0.292458	0.899295
	O1763	O	0.323920	0.293456	0.880075
	O1764	O	0.178290	0.209920	0.967636
	O1765	O	0.238769	0.461395	0.898589
	O1766	O	0.180031	0.460926	0.866473
	O1767	O	0.323867	0.461610	0.879999
	O1768	O	0.264015	0.460694	0.899076
	O1769	O	0.322159	0.212119	0.981656
	O1770	O	0.165679	0.376128	0.973314
	O1771	O	0.336480	0.127306	0.874390
	C1772	C	0.298641	0.217147	0.968217
	C1773	C	0.304746	0.127463	0.970776
	C1774	C	0.298746	0.037374	0.967961
	C1775	C	0.286985	0.037029	0.962943
	C1776	C	0.280879	0.126731	0.960522
	C1777	C	0.286874	0.216889	0.963223
	C1778	C	0.268322	0.126679	0.952853
	C1779	C	0.317282	0.127890	0.978359
	C1780	C	0.233223	0.127148	0.951081
	C1781	C	0.220386	0.126838	0.956075
	C1782	C	0.214225	0.216479	0.957012
	C1783	C	0.202284	0.216213	0.959312
	C1784	C	0.196206	0.126231	0.960826
	C1785	C	0.202378	0.036577	0.960045
	C1786	C	0.214317	0.036816	0.957776
	C1787	C	0.183385	0.125955	0.965745
	C1788	C	0.233851	0.377406	0.895404
	C1789	C	0.221332	0.377297	0.887759
	C1790	C	0.215244	0.467139	0.885262
	C1791	C	0.203489	0.466828	0.880102
	C1792	C	0.197483	0.376838	0.877286
	C1793	C	0.203587	0.287166	0.879695
	C1794	C	0.215339	0.287378	0.884890
	C1795	C	0.184973	0.376819	0.869556
	C1796	C	0.269063	0.376732	0.897051
	C1797	C	0.281878	0.376639	0.892065
	C1798	C	0.288045	0.286873	0.890999
	C1799	C	0.299977	0.287233	0.888586
	C1800	C	0.306058	0.377308	0.887118
	C1801	C	0.299911	0.467087	0.888212
	C1802	C	0.287973	0.466807	0.890615
	C1803	C	0.318869	0.377368	0.882124
	H1804	H	0.304612	0.217165	0.887924
	H1805	H	0.283468	0.216804	0.892089
	H1806	H	0.303140	0.287375	0.970241
	H1807	H	0.282301	0.286961	0.961429
	H1808	H	0.251871	0.126501	0.883758
	H1809	H	0.250518	0.377402	0.964143
	H1810	H	0.165968	0.376313	0.952501
	H1811	H	0.336068	0.127578	0.895157
	H1812	H	0.219887	0.217425	0.886892
	H1813	H	0.199068	0.217024	0.877845
	H1814	H	0.197659	0.286071	0.959843
	H1815	H	0.218805	0.286622	0.955905
	H1816	H	0.198878	0.536961	0.878575
	H1817	H	0.219733	0.537233	0.887556
	H1818	H	0.218964	-0.033048	0.957223
	H1819	H	0.197838	-0.033870	0.961205
	H1820	H	0.282486	-0.033418	0.960851
	H1821	H	0.303310	-0.032505	0.969767
	H1822	H	0.283341	0.536526	0.891395
	H1823	H	0.304469	0.537359	0.887207
	Al1824	Al	0.417838	-0.497495	0.090487
	Al1825	Al	0.417793	-0.247571	0.090782
	Al1826	Al	0.334530	-0.247112	0.006917
	Al1827	Al	0.334502	-0.497053	0.006979
	O1828	O	0.430112	-0.456818	0.116175
	O1829	O	0.418100	-0.372572	0.071235
	O1830	O	0.417625	-0.122605	0.110113
	O1831	O	0.488842	-0.457751	0.148531
	O1832	O	0.404947	-0.456475	0.115478
	O1833	O	0.345072	-0.456375	0.134369
	O1834	O	0.404904	-0.288127	0.115612
	O1835	O	0.405537	-0.206313	0.065102
	O1836	O	0.346829	-0.206802	0.032439
	O1837	O	0.430049	-0.288631	0.116494
	O1838	O	0.430694	-0.207239	0.065847
	O1839	O	0.490552	-0.208050	0.046274
	O1840	O	0.345074	-0.288360	0.134426
	O1841	O	0.405480	-0.038221	0.065243
	O1842	O	0.346863	-0.038504	0.032279
	O1843	O	0.490612	-0.039724	0.046502
	O1844	O	0.430698	-0.038654	0.065612
	O1845	O	0.488818	-0.289236	0.148403
	O1846	O	0.332451	-0.122136	0.139850
	O1847	O	0.503192	-0.373676	0.040930
	C1848	C	0.465375	-0.283322	0.134999
	C1849	C	0.471395	-0.373449	0.137606
	C1850	C	0.465329	-0.463197	0.134935
	C1851	C	0.453567	-0.462869	0.129924
	C1852	C	0.447551	-0.372788	0.127165
	C1853	C	0.453615	-0.283126	0.129972
	C1854	C	0.434993	-0.372657	0.119494
	C1855	C	0.483940	-0.373458	0.145276
	C1856	C	0.399905	-0.372507	0.117586
	C1857	C	0.387085	-0.372551	0.122493
	C1858	C	0.380952	-0.282681	0.123972
	C1859	C	0.369022	-0.282740	0.126352
	C1860	C	0.362910	-0.372596	0.127399
	C1861	C	0.369039	-0.462466	0.125905
	C1862	C	0.380958	-0.462490	0.123510
	C1863	C	0.350098	-0.372410	0.132367
	C1864	C	0.400592	-0.122186	0.062033
	C1865	C	0.388070	-0.122536	0.054203
	C1866	C	0.381979	-0.032759	0.051444
	C1867	C	0.370242	-0.032924	0.046191
	C1868	C	0.364217	-0.122813	0.043565
	C1869	C	0.370292	-0.212615	0.046233
	C1870	C	0.382038	-0.212474	0.051452
	C1871	C	0.351732	-0.122719	0.035573
	C1872	C	0.435749	-0.122905	0.063683
	C1873	C	0.448541	-0.123145	0.058512
	C1874	C	0.454660	-0.213054	0.056955
	C1875	C	0.466619	-0.213308	0.054541
	C1876	C	0.472735	-0.123559	0.053556
	C1877	C	0.466624	-0.033461	0.054896
	C1878	C	0.454675	-0.033300	0.057282
	C1879	C	0.485548	-0.123517	0.048558
	H1880	H	0.471182	-0.283488	0.053418
	H1881	H	0.450082	-0.283150	0.057748
	H1882	H	0.469910	-0.213511	0.137078
	H1883	H	0.449068	-0.212969	0.128228
	H1884	H	0.418520	-0.372366	0.050457
	H1885	H	0.417462	-0.122598	0.130913
	H1886	H	0.332786	-0.122352	0.119118
	H1887	H	0.502707	-0.373565	0.061695
	H1888	H	0.386627	-0.282590	0.053429
	H1889	H	0.365770	-0.282668	0.044232
	H1890	H	0.364401	-0.212711	0.127460
	H1891	H	0.385554	-0.212506	0.123343
	H1892	H	0.365686	0.037238	0.044177
	H1893	H	0.386485	0.037323	0.053473
	H1894	H	0.385580	-0.532487	0.122542
	H1895	H	0.364440	-0.532564	0.126712
	H1896	H	0.448986	-0.532844	0.128150
	H1897	H	0.469855	-0.533530	0.136893
	H1898	H	0.450096	0.036777	0.058338
	H1899	H	0.471236	0.036357	0.054056
	Al1900	Al	0.417844	0.002489	0.090706
	Al1901	Al	0.417860	0.252770	0.090275
	Al1902	Al	0.334496	0.252692	0.007216
	Al1903	Al	0.334507	0.002869	0.006935
	O1904	O	0.430105	0.042999	0.116366
	O1905	O	0.418043	0.127368	0.071162
	O1906	O	0.417608	0.377555	0.109849
	O1907	O	0.488808	0.042197	0.148626
	O1908	O	0.405006	0.044109	0.115711
	O1909	O	0.345095	0.043864	0.134475
	O1910	O	0.404961	0.212196	0.115247
	O1911	O	0.405547	0.293582	0.064708
	O1912	O	0.346789	0.293510	0.032984
	O1913	O	0.430086	0.211528	0.116294
	O1914	O	0.430737	0.293449	0.065630
	O1915	O	0.490622	0.292366	0.046436
	O1916	O	0.345140	0.211895	0.134640
	O1917	O	0.405553	0.461862	0.064774
	O1918	O	0.346747	0.461831	0.032803
	O1919	O	0.490686	0.460313	0.046564
	O1920	O	0.430752	0.461756	0.065631
	O1921	O	0.488821	0.210588	0.148649
	O1922	O	0.332463	0.377705	0.139716
	O1923	O	0.503307	0.126373	0.040768
	C1924	C	0.465354	0.217059	0.134930
	C1925	C	0.471379	0.126935	0.137556
	C1926	C	0.465308	0.037208	0.135064
	C1927	C	0.453571	0.037571	0.129940
	C1928	C	0.447548	0.127512	0.127157
	C1929	C	0.453606	0.217341	0.129837
	C1930	C	0.434997	0.127255	0.119437
	C1931	C	0.483911	0.126325	0.145483
	C1932	C	0.399948	0.128118	0.117600
	C1933	C	0.387147	0.127820	0.122446
	C1934	C	0.380998	0.217548	0.123799
	C1935	C	0.369077	0.217572	0.126175
	C1936	C	0.362969	0.127738	0.127464
	C1937	C	0.369102	0.037896	0.126150
	C1938	C	0.381023	0.037951	0.123765
	C1939	C	0.350161	0.127718	0.132460
	C1940	C	0.400613	0.377668	0.061690
	C1941	C	0.388086	0.377650	0.054041
	C1942	C	0.382040	0.467478	0.051312
	C1943	C	0.370282	0.467475	0.046213
	C1944	C	0.364204	0.377745	0.043810
	C1945	C	0.370243	0.287757	0.046455
	C1946	C	0.382015	0.287781	0.051480
	C1947	C	0.351686	0.377791	0.036050
	C1948	C	0.435791	0.377558	0.063560
	C1949	C	0.448601	0.377336	0.058659
	C1950	C	0.454712	0.287333	0.057286
	C1951	C	0.466638	0.287156	0.054786
	C1952	C	0.472800	0.376783	0.053546
	C1953	C	0.466696	0.466717	0.055050
	C1954	C	0.454777	0.466966	0.057532
	C1955	C	0.485613	0.376271	0.048633
	H1956	H	0.471244	0.217434	0.053647
	H1957	H	0.450093	0.217486	0.057972
	H1958	H	0.469922	0.286940	0.136862
	H1959	H	0.449088	0.287384	0.127713
	H1960	H	0.418109	0.127156	0.050300
	H1961	H	0.417314	0.377220	0.130602
	H1962	H	0.332954	0.378120	0.118966
	H1963	H	0.503172	0.126158	0.061616
	H1964	H	0.386530	0.217740	0.053445
	H1965	H	0.365700	0.217852	0.044542
	H1966	H	0.364465	0.287619	0.127072
	H1967	H	0.385598	0.287543	0.122920
	H1968	H	0.365758	0.537733	0.044209
	H1969	H	0.386589	0.537607	0.053266
	H1970	H	0.385617	-0.032068	0.122776
	H1971	H	0.364489	-0.032078	0.127068
	H1972	H	0.449032	-0.032508	0.127960
	H1973	H	0.469805	-0.033014	0.137129
	H1974	H	0.450175	0.536878	0.058486
	H1975	H	0.471323	0.536655	0.054181
	Al1976	Al	0.415450	-0.497616	0.242805
	Al1977	Al	0.415532	-0.247390	0.242813
	Al1978	Al	0.332170	-0.247202	0.159277
	Al1979	Al	0.332159	-0.497601	0.159120
	O1980	O	0.427778	-0.456439	0.268427
	O1981	O	0.415777	-0.372747	0.223452
	O1982	O	0.415300	-0.122398	0.262170
	O1983	O	0.486557	-0.456954	0.300509
	O1984	O	0.402621	-0.456910	0.267805
	O1985	O	0.342729	-0.456199	0.286733
	O1986	O	0.402659	-0.288342	0.267835
	O1987	O	0.403200	-0.206972	0.217313
	O1988	O	0.344523	-0.206252	0.184772
	O1989	O	0.427813	-0.288139	0.268531
	O1990	O	0.428442	-0.206748	0.217927
	O1991	O	0.488276	-0.207834	0.198810
	O1992	O	0.342730	-0.287892	0.286531
	O1993	O	0.403278	-0.038576	0.216883
	O1994	O	0.344507	-0.037854	0.184899
	O1995	O	0.488302	-0.039667	0.198960
	O1996	O	0.428390	-0.038485	0.217842
	O1997	O	0.486614	-0.288749	0.300412
	O1998	O	0.330067	-0.122327	0.292240
	O1999	O	0.500946	-0.373523	0.193528
	C2000	C	0.463078	-0.282933	0.287060
	C2001	C	0.469130	-0.372760	0.289637
	C2002	C	0.463090	-0.462713	0.286934
	C2003	C	0.451311	-0.462655	0.281861
	C2004	C	0.445257	-0.372754	0.279270
	C2005	C	0.451304	-0.283044	0.281977
	C2006	C	0.432718	-0.372375	0.271537
	C2007	C	0.481672	-0.372872	0.297359
	C2008	C	0.397611	-0.372391	0.269899
	C2009	C	0.384801	-0.372233	0.274939
	C2010	C	0.378685	-0.282242	0.276093
	C2011	C	0.366738	-0.282252	0.278366
	C2012	C	0.360600	-0.372124	0.279572
	C2013	C	0.366721	-0.462045	0.278539
	C2014	C	0.378671	-0.462144	0.276225
	C2015	C	0.347780	-0.372008	0.284576
	C2016	C	0.398339	-0.122641	0.213958
	C2017	C	0.385766	-0.122515	0.206244
	C2018	C	0.379772	-0.032600	0.203419
	C2019	C	0.368025	-0.032298	0.198346
	C2020	C	0.361959	-0.122117	0.195780
	C2021	C	0.367959	-0.212111	0.198429
	C2022	C	0.379714	-0.212326	0.203507
	C2023	C	0.349417	-0.122023	0.187939
	C2024	C	0.433470	-0.122453	0.215822
	C2025	C	0.446277	-0.122682	0.210991
	C2026	C	0.452380	-0.212727	0.209676
	C2027	C	0.464322	-0.212959	0.207253
	C2028	C	0.470453	-0.123194	0.205975
	C2029	C	0.464366	-0.033136	0.207262
	C2030	C	0.452414	-0.032858	0.209638
	C2031	C	0.483270	-0.123582	0.201135
	H2032	H	0.468855	-0.283226	0.206443
	H2033	H	0.447742	-0.282658	0.210547
	H2034	H	0.467574	-0.212739	0.289175
	H2035	H	0.446790	-0.212751	0.280055
	H2036	H	0.416361	-0.372186	0.202797
	H2037	H	0.415146	-0.122633	0.282923
	H2038	H	0.330089	-0.122584	0.271566
	H2039	H	0.500622	-0.372878	0.214335
	H2040	H	0.384243	-0.282404	0.205423
	H2041	H	0.363381	-0.282104	0.196512
	H2042	H	0.362150	-0.211989	0.279240
	H2043	H	0.383295	-0.212280	0.275045
	H2044	H	0.363524	0.037985	0.196233
	H2045	H	0.384310	0.037391	0.205302
	H2046	H	0.383259	-0.532371	0.275401
	H2047	H	0.362119	-0.531992	0.279613
	H2048	H	0.446783	-0.532766	0.279837
	H2049	H	0.467599	-0.532865	0.288873
	H2050	H	0.447861	0.037297	0.210462
	H2051	H	0.469007	0.036924	0.206510
	Al2052	Al	0.415472	0.002408	0.242634
	Al2053	Al	0.415548	0.252272	0.242672
	Al2054	Al	0.332180	0.252661	0.159302
	Al2055	Al	0.332157	0.002759	0.159365
	O2056	O	0.427793	0.043413	0.268276
	O2057	O	0.415772	0.127242	0.223097
	O2058	O	0.415280	0.377088	0.262207
	O2059	O	0.486556	0.042466	0.300733
	O2060	O	0.402636	0.043192	0.267723
	O2061	O	0.342760	0.043446	0.286711
	O2062	O	0.402650	0.211648	0.267528
	O2063	O	0.403181	0.293145	0.217245
	O2064	O	0.344466	0.293423	0.184940
	O2065	O	0.427894	0.211736	0.268019
	O2066	O	0.428361	0.293085	0.217789
	O2067	O	0.488237	0.292363	0.199389
	O2068	O	0.342732	0.211958	0.286687
	O2069	O	0.403183	0.461370	0.217231
	O2070	O	0.344447	0.461900	0.184816
	O2071	O	0.488230	0.460515	0.199074
	O2072	O	0.428342	0.461330	0.217824
	O2073	O	0.486510	0.210731	0.300806
	O2074	O	0.330168	0.377941	0.292189
	O2075	O	0.500852	0.126415	0.193614
	C2076	C	0.463079	0.216853	0.287146
	C2077	C	0.469109	0.126778	0.289825
	C2078	C	0.463069	0.036874	0.287040
	C2079	C	0.451299	0.036683	0.281887
	C2080	C	0.445278	0.126725	0.279169
	C2081	C	0.451316	0.216722	0.281933
	C2082	C	0.432742	0.127293	0.271368
	C2083	C	0.481649	0.126738	0.297581
	C2084	C	0.397598	0.127448	0.269762
	C2085	C	0.384797	0.127353	0.274769
	C2086	C	0.378650	0.217420	0.275847
	C2087	C	0.366714	0.217581	0.278244
	C2088	C	0.360585	0.127601	0.279693
	C2089	C	0.366708	0.037422	0.278429
	C2090	C	0.378652	0.037378	0.276061
	C2091	C	0.347798	0.127528	0.284573
	C2092	C	0.398280	0.377242	0.214173
	C2093	C	0.385722	0.377584	0.206569
	C2094	C	0.379692	0.467600	0.203646
	C2095	C	0.367940	0.467586	0.198481
	C2096	C	0.361877	0.377560	0.195956
	C2097	C	0.367906	0.287563	0.198723
	C2098	C	0.379658	0.287653	0.203827
	C2099	C	0.349339	0.377724	0.188106
	C2100	C	0.433391	0.377214	0.215736
	C2101	C	0.446192	0.377345	0.210828
	C2102	C	0.452292	0.287279	0.209739
	C2103	C	0.464246	0.286942	0.207431
	C2104	C	0.470397	0.376714	0.206066
	C2105	C	0.464297	0.466847	0.207137
	C2106	C	0.452351	0.467134	0.209488
	C2107	C	0.483198	0.376417	0.201222
	H2108	H	0.468848	0.216644	0.206519
	H2109	H	0.447706	0.217096	0.210689
	H2110	H	0.467607	0.286905	0.289154
	H2111	H	0.446810	0.286885	0.279943
	H2112	H	0.416149	0.127602	0.202412
	H2113	H	0.414871	0.376870	0.283044
	H2114	H	0.330706	0.377541	0.271526
	H2115	H	0.500508	0.126508	0.214522
	H2116	H	0.384203	0.217641	0.205866
	H2117	H	0.363336	0.217117	0.196927
	H2118	H	0.362100	0.287432	0.279256
	H2119	H	0.383246	0.287414	0.274921
	H2120	H	0.363377	0.537625	0.196551
	H2121	H	0.384232	0.537540	0.205590
	H2122	H	0.383276	-0.032777	0.275273
	H2123	H	0.362122	-0.032833	0.279497
	H2124	H	0.446749	-0.033449	0.279911
	H2125	H	0.467626	-0.033369	0.288996
	H2126	H	0.447722	0.537082	0.210116
	H2127	H	0.468890	0.536809	0.206054
	Al2128	Al	0.413224	-0.497535	0.394922
	Al2129	Al	0.413188	-0.247767	0.394960
	Al2130	Al	0.329934	-0.247307	0.311747
	Al2131	Al	0.329873	-0.497242	0.311723
	O2132	O	0.425482	-0.456771	0.420754
	O2133	O	0.413425	-0.372710	0.375561
	O2134	O	0.413068	-0.122554	0.414447
	O2135	O	0.484245	-0.457407	0.452705
	O2136	O	0.400374	-0.456656	0.419890
	O2137	O	0.340561	-0.457219	0.439934
	O2138	O	0.400333	-0.288376	0.419911
	O2139	O	0.400891	-0.206725	0.369280
	O2140	O	0.342219	-0.206685	0.337137
	O2141	O	0.425494	-0.288322	0.420633
	O2142	O	0.426056	-0.206670	0.370096
	O2143	O	0.485907	-0.207809	0.351107
	O2144	O	0.340519	-0.288750	0.439901
	O2145	O	0.400880	-0.038251	0.369507
	O2146	O	0.342159	-0.038478	0.337469
	O2147	O	0.485978	-0.039419	0.351239
	O2148	O	0.426113	-0.038430	0.369948
	O2149	O	0.484195	-0.289013	0.452903
	O2150	O	0.327993	-0.122954	0.446740
	O2151	O	0.498594	-0.373187	0.345625
	C2152	C	0.460734	-0.283108	0.439319
	C2153	C	0.466765	-0.373025	0.441925
	C2154	C	0.460717	-0.462788	0.439159
	C2155	C	0.448950	-0.462684	0.434052
	C2156	C	0.442933	-0.372644	0.431547
	C2157	C	0.448979	-0.282854	0.434226
	C2158	C	0.430393	-0.372546	0.423804
	C2159	C	0.479295	-0.373259	0.449588
	C2160	C	0.395339	-0.372681	0.422062
	C2161	C	0.382544	-0.372692	0.427455
	C2162	C	0.376400	-0.283004	0.428639
	C2163	C	0.364471	-0.282962	0.431358
	C2164	C	0.358367	-0.372683	0.432988
	C2165	C	0.364512	-0.462556	0.431740
	C2166	C	0.376422	-0.462495	0.429001
	C2167	C	0.345579	-0.372922	0.437929
	C2168	C	0.395974	-0.122415	0.366271
	C2169	C	0.383437	-0.122335	0.358683
	C2170	C	0.377384	-0.032449	0.356234
	C2171	C	0.365636	-0.032584	0.351133
	C2172	C	0.359607	-0.122414	0.348237
	C2173	C	0.365665	-0.212231	0.350735
	C2174	C	0.377431	-0.212254	0.355769
	C2175	C	0.347095	-0.122526	0.340558
	C2176	C	0.431119	-0.122667	0.367967
	C2177	C	0.443931	-0.122723	0.363109
	C2178	C	0.450046	-0.212804	0.361978
	C2179	C	0.461976	-0.213083	0.359576
	C2180	C	0.468102	-0.123207	0.358247
	C2181	C	0.461963	-0.033058	0.359178
	C2182	C	0.450040	-0.032789	0.361559
	C2183	C	0.480915	-0.123458	0.353195
	H2184	H	0.466601	-0.283075	0.358948
	H2185	H	0.445416	-0.282769	0.363148
	H2186	H	0.465281	-0.212969	0.441404
	H2187	H	0.444475	-0.212736	0.432365
	H2188	H	0.413712	-0.372429	0.354801
	H2189	H	0.413003	-0.122437	0.435318
	H2190	H	0.328113	-0.123129	0.425960
	H2191	H	0.498295	-0.373430	0.366346
	H2192	H	0.382005	-0.282102	0.357321
	H2193	H	0.361183	-0.282210	0.348509
	H2194	H	0.359871	-0.213155	0.432403
	H2195	H	0.381017	-0.213082	0.427514
	H2196	H	0.361078	0.037403	0.349119
	H2197	H	0.381898	0.037370	0.358199
	H2198	H	0.381036	-0.532632	0.428121
	H2199	H	0.359918	-0.532302	0.433088
	H2200	H	0.444406	-0.532461	0.432100
	H2201	H	0.465224	-0.533209	0.441178
	H2202	H	0.445418	0.037185	0.362329
	H2203	H	0.466582	0.036876	0.358197
	Al2204	Al	0.413241	0.002391	0.394872
	Al2205	Al	0.413227	0.252168	0.395100
	Al2206	Al	0.329860	0.252622	0.311622
	Al2207	Al	0.329929	0.002611	0.311657
	O2208	O	0.425562	0.042932	0.420491
	O2209	O	0.413439	0.127311	0.375526
	O2210	O	0.413003	0.377253	0.414502
	O2211	O	0.484272	0.042070	0.452962
	O2212	O	0.400416	0.043161	0.419952
	O2213	O	0.340586	0.042666	0.439616
	O2214	O	0.400387	0.211422	0.420206
	O2215	O	0.400877	0.292538	0.369659
	O2216	O	0.342171	0.293688	0.337218
	O2217	O	0.425590	0.211453	0.420441
	O2218	O	0.426035	0.293233	0.370053
	O2219	O	0.485930	0.292599	0.351155
	O2220	O	0.340570	0.211404	0.439904
	O2221	O	0.400943	0.461026	0.369383
	O2222	O	0.342294	0.462055	0.336904
	O2223	O	0.485967	0.461069	0.351023
	O2224	O	0.426149	0.461569	0.370082
	O2225	O	0.484323	0.210583	0.452549
	O2226	O	0.327985	0.377483	0.447123
	O2227	O	0.498586	0.126495	0.345823
	C2228	C	0.460840	0.216645	0.439203
	C2229	C	0.466853	0.126613	0.441893
	C2230	C	0.460804	0.036656	0.439203
	C2231	C	0.449051	0.036785	0.434028
	C2232	C	0.443022	0.126827	0.431361
	C2233	C	0.449088	0.216699	0.434070
	C2234	C	0.430504	0.127124	0.423689
	C2235	C	0.479390	0.126386	0.449624
	C2236	C	0.395376	0.127145	0.422269
	C2237	C	0.382580	0.127264	0.427544
	C2238	C	0.376471	0.217124	0.428880
	C2239	C	0.364535	0.217111	0.431385
	C2240	C	0.358438	0.127219	0.432719
	C2241	C	0.364543	0.037363	0.431526
	C2242	C	0.376482	0.037234	0.428967
	C2243	C	0.345617	0.127058	0.437719
	C2244	C	0.396014	0.377056	0.366426
	C2245	C	0.383482	0.377231	0.358733
	C2246	C	0.377477	0.467240	0.355868
	C2247	C	0.365744	0.467349	0.350660
	C2248	C	0.359681	0.377436	0.347959
	C2249	C	0.365711	0.287458	0.350748
	C2250	C	0.377441	0.287352	0.355913
	C2251	C	0.347146	0.377717	0.340315
	C2252	C	0.431119	0.377207	0.367959
	C2253	C	0.443935	0.376628	0.362921
	C2254	C	0.450067	0.286620	0.361653
	C2255	C	0.461999	0.286526	0.359272
	C2256	C	0.468101	0.376666	0.358048
	C2257	C	0.461977	0.466688	0.359283
	C2258	C	0.450036	0.466774	0.361601
	C2259	C	0.480933	0.376845	0.353103
	H2260	H	0.466590	0.216177	0.358224
	H2261	H	0.445453	0.216694	0.362601
	H2262	H	0.465384	0.286695	0.441117
	H2263	H	0.444570	0.286639	0.432049
	H2264	H	0.413676	0.127467	0.354753
	H2265	H	0.412905	0.378161	0.435205
	H2266	H	0.328065	0.378021	0.426442
	H2267	H	0.498222	0.126257	0.366636
	H2268	H	0.381969	0.217424	0.357967
	H2269	H	0.361144	0.217586	0.348829
	H2270	H	0.359957	0.287123	0.432368
	H2271	H	0.381051	0.287254	0.428051
	H2272	H	0.361195	0.537378	0.348731
	H2273	H	0.382050	0.537245	0.357805
	H2274	H	0.381104	-0.032652	0.428118
	H2275	H	0.359944	-0.032536	0.432574
	H2276	H	0.444541	-0.033307	0.431995
	H2277	H	0.465345	-0.033120	0.441121
	H2278	H	0.445429	0.537286	0.362426
	H2279	H	0.466605	0.536564	0.358253
	Al2280	Al	0.411359	-0.497330	0.550174
	Al2281	Al	0.411304	-0.248137	0.550030
	Al2282	Al	0.328013	-0.247088	0.466257
	Al2283	Al	0.328042	-0.498196	0.466479
	O2284	O	0.424002	-0.457177	0.574562
	O2285	O	0.411321	-0.372822	0.530769
	O2286	O	0.411750	-0.123044	0.569396
	O2287	O	0.482108	-0.457239	0.609353
	O2288	O	0.399703	-0.456772	0.578789
	O2289	O	0.350253	-0.456746	0.671995
	O2290	O	0.399736	-0.288746	0.578881
	O2291	O	0.398721	-0.207161	0.526238
	O2292	O	0.340656	-0.206544	0.490582
	O2293	O	0.423983	-0.288548	0.574451
	O2294	O	0.423753	-0.206568	0.523226
	O2295	O	0.483644	-0.207649	0.503424
	O2296	O	0.350256	-0.288676	0.672058
	O2297	O	0.398725	-0.038633	0.526391
	O2298	O	0.340644	-0.037933	0.490723
	O2299	O	0.483691	-0.039288	0.503451
	O2300	O	0.423841	-0.038099	0.523708
	O2301	O	0.482108	-0.288865	0.609374
	O2302	O	0.338273	-0.122150	0.681282
	O2303	O	0.496320	-0.373503	0.497920
	C2304	C	0.458832	-0.283369	0.595707
	C2305	C	0.464767	-0.373127	0.598693
	C2306	C	0.458800	-0.462799	0.595866
	C2307	C	0.447133	-0.462723	0.589804
	C2308	C	0.441214	-0.372878	0.586431
	C2309	C	0.447177	-0.283249	0.589636
	C2310	C	0.428847	-0.372970	0.577867
	C2311	C	0.477221	-0.372957	0.606427
	C2312	C	0.395537	-0.372697	0.586568
	C2313	C	0.384932	-0.372854	0.606651
	C2314	C	0.379976	-0.284001	0.616411
	C2315	C	0.370143	-0.283813	0.634939
	C2316	C	0.365002	-0.372645	0.644061
	C2317	C	0.369983	-0.461602	0.634388
	C2318	C	0.379825	-0.461715	0.615834
	C2319	C	0.354432	-0.372589	0.664243
	C2320	C	0.393841	-0.122882	0.523328
	C2321	C	0.381404	-0.122608	0.515442
	C2322	C	0.375457	-0.032781	0.512278
	C2323	C	0.363804	-0.032602	0.506065
	C2324	C	0.357841	-0.122302	0.502936
	C2325	C	0.363805	-0.212093	0.506131
	C2326	C	0.375442	-0.212090	0.512417
	C2327	C	0.345486	-0.122320	0.494149
	C2328	C	0.428832	-0.122480	0.521372
	C2329	C	0.441640	-0.122686	0.516289
	C2330	C	0.447755	-0.212618	0.514881
	C2331	C	0.459693	-0.212719	0.512242
	C2332	C	0.465831	-0.122890	0.510891
	C2333	C	0.459708	-0.032952	0.512220
	C2334	C	0.447769	-0.032809	0.514899
	C2335	C	0.478628	-0.123336	0.505607
	H2336	H	0.464275	-0.282914	0.511193
	H2337	H	0.443145	-0.282540	0.515957
	H2338	H	0.463368	-0.214140	0.598219
	H2339	H	0.442708	-0.213460	0.587111
	H2340	H	0.411566	-0.373015	0.509850
	H2341	H	0.412396	-0.123435	0.590205
	H2342	H	0.337664	-0.121732	0.660598
	H2343	H	0.496074	-0.374002	0.518721
	H2344	H	0.379944	-0.281672	0.514890
	H2345	H	0.359348	-0.281832	0.503645
	H2346	H	0.366445	-0.214760	0.642467
	H2347	H	0.383827	-0.215013	0.609461
	H2348	H	0.359265	0.036889	0.503460
	H2349	H	0.379990	0.036622	0.514664
	H2350	H	0.383557	-0.530784	0.608330
	H2351	H	0.366171	-0.530589	0.641397
	H2352	H	0.442577	-0.532146	0.587472
	H2353	H	0.463286	-0.532066	0.598506
	H2354	H	0.443193	0.037150	0.515906
	H2355	H	0.464329	0.036848	0.511146
	Al2356	Al	0.411318	0.002560	0.550239
	Al2357	Al	0.411328	0.252048	0.550097
	Al2358	Al	0.328090	0.252446	0.466255
	Al2359	Al	0.328071	0.001876	0.466058
	O2360	O	0.423930	0.043194	0.574781
	O2361	O	0.411289	0.127145	0.530811
	O2362	O	0.411686	0.377144	0.569486
	O2363	O	0.482136	0.042761	0.609340
	O2364	O	0.399684	0.043475	0.578801
	O2365	O	0.350253	0.044039	0.671954
	O2366	O	0.399717	0.211741	0.578815
	O2367	O	0.398753	0.293171	0.526177
	O2368	O	0.340703	0.292738	0.490673
	O2369	O	0.423964	0.211393	0.574610
	O2370	O	0.423812	0.292973	0.523537
	O2371	O	0.483625	0.292393	0.503160
	O2372	O	0.350309	0.212145	0.672082
	O2373	O	0.398708	0.461526	0.526347
	O2374	O	0.340581	0.461203	0.491184
	O2375	O	0.483665	0.460773	0.503186
	O2376	O	0.423797	0.461563	0.523514
	O2377	O	0.482126	0.210913	0.609233
	O2378	O	0.338238	0.377778	0.681406
	O2379	O	0.496300	0.127021	0.497987
	C2380	C	0.458806	0.216417	0.595909
	C2381	C	0.464779	0.126775	0.598807
	C2382	C	0.458792	0.037065	0.595924
	C2383	C	0.447137	0.037202	0.589783
	C2384	C	0.441193	0.126856	0.586588
	C2385	C	0.447155	0.216551	0.589800
	C2386	C	0.428796	0.127321	0.578063
	C2387	C	0.477222	0.126871	0.606413
	C2388	C	0.395502	0.127533	0.586595
	C2389	C	0.384950	0.127619	0.606775
	C2390	C	0.379949	0.216697	0.616342
	C2391	C	0.370103	0.216769	0.634859
	C2392	C	0.365043	0.127601	0.644221
	C2393	C	0.370050	0.038503	0.634775
	C2394	C	0.379909	0.038509	0.616256
	C2395	C	0.354437	0.128179	0.664247
	C2396	C	0.393839	0.377436	0.523302
	C2397	C	0.381400	0.377466	0.515412
	C2398	C	0.375403	0.467163	0.512641
	C2399	C	0.363770	0.467097	0.506445
	C2400	C	0.357854	0.377233	0.502913
	C2401	C	0.363834	0.287579	0.506071
	C2402	C	0.375458	0.287597	0.512340
	C2403	C	0.345475	0.377118	0.494329
	C2404	C	0.428829	0.377342	0.521272
	C2405	C	0.441633	0.377338	0.516216
	C2406	C	0.447763	0.287452	0.514939
	C2407	C	0.459694	0.287165	0.512299
	C2408	C	0.465817	0.376931	0.510807
	C2409	C	0.459699	0.466765	0.512400
	C2410	C	0.447759	0.467138	0.515005
	C2411	C	0.478609	0.376686	0.505500
	H2412	H	0.464305	0.217105	0.511350
	H2413	H	0.443170	0.217417	0.515850
	H2414	H	0.463320	0.285973	0.598274
	H2415	H	0.442622	0.286206	0.587474
	H2416	H	0.411554	0.126772	0.510121
	H2417	H	0.412331	0.377256	0.590205
	H2418	H	0.337628	0.377995	0.660675
	H2419	H	0.496152	0.126945	0.518771
	H2420	H	0.379969	0.218054	0.514708
	H2421	H	0.359298	0.217833	0.503379
	H2422	H	0.366346	0.285870	0.642110
	H2423	H	0.383741	0.286041	0.609152
	H2424	H	0.359264	0.536872	0.504158
	H2425	H	0.379925	0.536280	0.515260
	H2426	H	0.383668	-0.030821	0.608947
	H2427	H	0.366258	-0.030740	0.641925
	H2428	H	0.442629	-0.032433	0.587475
	H2429	H	0.463342	-0.032507	0.598330
	H2430	H	0.443155	0.537118	0.515991
	H2431	H	0.464312	0.536417	0.511431
	Al2432	Al	0.421959	-0.497746	0.783715
	Al2433	Al	0.421986	-0.247144	0.783740
	Al2434	Al	0.338613	-0.247631	0.700751
	Al2435	Al	0.338601	-0.496971	0.700789
	O2436	O	0.434552	-0.456778	0.807711
	O2437	O	0.421585	-0.372685	0.764387
	O2438	O	0.422025	-0.122937	0.803149
	O2439	O	0.492734	-0.457261	0.842311
	O2440	O	0.409480	-0.456599	0.810116
	O2441	O	0.349654	-0.456809	0.830192
	O2442	O	0.409415	-0.288156	0.810097
	O2443	O	0.409418	-0.206163	0.759071
	O2444	O	0.351215	-0.206283	0.724392
	O2445	O	0.434600	-0.288489	0.807443
	O2446	O	0.433619	-0.206665	0.754995
	O2447	O	0.483037	-0.206971	0.661968
	O2448	O	0.349618	-0.288620	0.829850
	O2449	O	0.409313	-0.037722	0.759587
	O2450	O	0.351209	-0.037943	0.724415
	O2451	O	0.483073	-0.038800	0.661908
	O2452	O	0.433647	-0.038633	0.755204
	O2453	O	0.492740	-0.288810	0.842255
	O2454	O	0.336925	-0.123076	0.835513
	O2455	O	0.495097	-0.373323	0.652549
	C2456	C	0.469588	-0.283139	0.826873
	C2457	C	0.475510	-0.373082	0.830134
	C2458	C	0.469533	-0.462649	0.827076
	C2459	C	0.457876	-0.462552	0.821030
	C2460	C	0.451954	-0.372767	0.817900
	C2461	C	0.457922	-0.283102	0.820796
	C2462	C	0.439483	-0.372688	0.810389
	C2463	C	0.487906	-0.372961	0.838696
	C2464	C	0.404416	-0.372537	0.812257
	C2465	C	0.391614	-0.372738	0.817176
	C2466	C	0.385490	-0.283186	0.818451
	C2467	C	0.373558	-0.283152	0.820962
	C2468	C	0.367450	-0.372821	0.822445
	C2469	C	0.373564	-0.462625	0.821010
	C2470	C	0.385504	-0.462403	0.818516
	C2471	C	0.354666	-0.372739	0.827667
	C2472	C	0.404529	-0.121803	0.755889
	C2473	C	0.392145	-0.122094	0.747203
	C2474	C	0.386175	-0.032548	0.744108
	C2475	C	0.374502	-0.032588	0.737952
	C2476	C	0.368586	-0.122222	0.734852
	C2477	C	0.374588	-0.211876	0.737691
	C2478	C	0.386236	-0.211787	0.743801
	C2479	C	0.356122	-0.122267	0.727227
	C2480	C	0.437822	-0.122560	0.747421
	C2481	C	0.448392	-0.122892	0.727240
	C2482	C	0.453441	-0.211863	0.717805
	C2483	C	0.463274	-0.212081	0.699321
	C2484	C	0.468316	-0.122979	0.689867
	C2485	C	0.463233	-0.034094	0.699181
	C2486	C	0.453404	-0.033953	0.717658
	C2487	C	0.478880	-0.122960	0.669741
	H2488	H	0.467069	-0.280928	0.692148
	H2489	H	0.449668	-0.280613	0.725122
	H2490	H	0.474086	-0.213478	0.829238
	H2491	H	0.453413	-0.213695	0.818289
	H2492	H	0.420955	-0.372699	0.743749
	H2493	H	0.421950	-0.122640	0.823795
	H2494	H	0.337043	-0.123119	0.814702
	H2495	H	0.495867	-0.373134	0.673192
	H2496	H	0.390747	-0.281481	0.746037
	H2497	H	0.370102	-0.281429	0.735129
	H2498	H	0.368970	-0.213375	0.821970
	H2499	H	0.390082	-0.213229	0.817658
	H2500	H	0.369972	0.036871	0.735534
	H2501	H	0.390694	0.037101	0.746505
	H2502	H	0.390125	-0.532297	0.817750
	H2503	H	0.368965	-0.532524	0.822075
	H2504	H	0.453347	-0.531934	0.818703
	H2505	H	0.474046	-0.532253	0.829527
	H2506	H	0.449589	0.034870	0.724751
	H2507	H	0.467026	0.034697	0.691842
	Al2508	Al	0.421955	0.002182	0.783995
	Al2509	Al	0.421972	0.252803	0.783864
	Al2510	Al	0.338588	0.252368	0.700809
	Al2511	Al	0.338574	0.003243	0.700674
	O2512	O	0.434531	0.043113	0.807756
	O2513	O	0.421658	0.127379	0.764647
	O2514	O	0.422098	0.377578	0.803052
	O2515	O	0.492743	0.042590	0.842262
	O2516	O	0.409476	0.044019	0.810382
	O2517	O	0.349601	0.043162	0.829907
	O2518	O	0.409414	0.212583	0.810176
	O2519	O	0.409394	0.293261	0.759290
	O2520	O	0.351183	0.293588	0.724666
	O2521	O	0.434580	0.211637	0.807719
	O2522	O	0.433627	0.293242	0.755083
	O2523	O	0.483035	0.292611	0.661713
	O2524	O	0.349596	0.211271	0.829990
	O2525	O	0.409430	0.461665	0.759155
	O2526	O	0.351216	0.462244	0.724659
	O2527	O	0.483087	0.460777	0.661841
	O2528	O	0.433724	0.461502	0.755160
	O2529	O	0.492760	0.210872	0.841892
	O2530	O	0.336958	0.377283	0.835632
	O2531	O	0.495029	0.127187	0.652422
	C2532	C	0.469559	0.216693	0.826776
	C2533	C	0.475503	0.126955	0.830096
	C2534	C	0.469511	0.037227	0.827148
	C2535	C	0.457841	0.037210	0.821204
	C2536	C	0.451898	0.127030	0.818207
	C2537	C	0.457890	0.216730	0.820811
	C2538	C	0.439458	0.127189	0.810615
	C2539	C	0.487885	0.126791	0.838689
	C2540	C	0.404414	0.128078	0.812217
	C2541	C	0.391600	0.128061	0.817161
	C2542	C	0.385438	0.217557	0.818429
	C2543	C	0.373513	0.217298	0.820976
	C2544	C	0.367436	0.127296	0.822454
	C2545	C	0.373575	0.037598	0.820942
	C2546	C	0.385516	0.038053	0.818380
	C2547	C	0.354614	0.127271	0.827671
	C2548	C	0.404549	0.377462	0.755777
	C2549	C	0.392165	0.377530	0.747154
	C2550	C	0.386178	0.467108	0.743918
	C2551	C	0.374530	0.467256	0.737857
	C2552	C	0.368569	0.377646	0.734925
	C2553	C	0.374550	0.287861	0.737776
	C2554	C	0.386221	0.287744	0.743852
	C2555	C	0.356093	0.377705	0.727514
	C2556	C	0.437847	0.377253	0.747387
	C2557	C	0.448389	0.377125	0.727129
	C2558	C	0.453423	0.288155	0.717582
	C2559	C	0.463255	0.287889	0.699108
	C2560	C	0.468318	0.376819	0.689720
	C2561	C	0.463281	0.465926	0.699243
	C2562	C	0.453456	0.466073	0.717743
	C2563	C	0.478866	0.376711	0.669524
	H2564	H	0.467044	0.219006	0.691731
	H2565	H	0.449624	0.219306	0.724825
	H2566	H	0.474083	0.286058	0.829227
	H2567	H	0.453413	0.286466	0.818354
	H2568	H	0.420992	0.126808	0.743976
	H2569	H	0.421901	0.377948	0.823873
	H2570	H	0.336980	0.377107	0.814822
	H2571	H	0.495524	0.127553	0.673242
	H2572	H	0.390765	0.218080	0.746250
	H2573	H	0.370019	0.218558	0.735351
	H2574	H	0.368890	0.287154	0.822102
	H2575	H	0.390009	0.287916	0.817548
	H2576	H	0.370002	0.536765	0.735471
	H2577	H	0.390666	0.536837	0.746376
	H2578	H	0.390153	-0.031926	0.817389
	H2579	H	0.369010	-0.032463	0.822073
	H2580	H	0.453273	-0.032154	0.819034
	H2581	H	0.473977	-0.032741	0.829847
	H2582	H	0.449666	0.535055	0.725105
	H2583	H	0.467077	0.534946	0.692018
	Al2584	Al	0.420173	-0.497720	0.937938
	Al2585	Al	0.420179	-0.247785	0.937943
	Al2586	Al	0.336809	-0.248159	0.854968
	Al2587	Al	0.336782	-0.497707	0.854930
	O2588	O	0.432463	-0.456632	0.963434
	O2589	O	0.420376	-0.372714	0.918464
	O2590	O	0.419911	-0.122920	0.957388
	O2591	O	0.491133	-0.458049	0.995975
	O2592	O	0.407351	-0.456979	0.963154
	O2593	O	0.347400	-0.456719	0.982117
	O2594	O	0.407304	-0.288800	0.962964
	O2595	O	0.407821	-0.206867	0.912568
	O2596	O	0.349103	-0.207385	0.880516
	O2597	O	0.432510	-0.288449	0.963448
	O2598	O	0.433037	-0.207117	0.912958
	O2599	O	0.492829	-0.207216	0.893308
	O2600	O	0.347406	-0.288675	0.981998
	O2601	O	0.407761	-0.038658	0.912596
	O2602	O	0.349037	-0.038989	0.880508
	O2603	O	0.492887	-0.038929	0.893371
	O2604	O	0.432994	-0.038998	0.913002
	O2605	O	0.491173	-0.289614	0.995767
	O2606	O	0.334742	-0.122103	0.987330
	O2607	O	0.505379	-0.372756	0.886160
	C2608	C	0.467760	-0.283587	0.981989
	C2609	C	0.473752	-0.373539	0.984835
	C2610	C	0.467678	-0.463208	0.982397
	C2611	C	0.455926	-0.462927	0.977202
	C2612	C	0.449941	-0.373076	0.974224
	C2613	C	0.456019	-0.283407	0.976821
	C2614	C	0.437402	-0.372545	0.966580
	C2615	C	0.486274	-0.373634	0.992637
	C2616	C	0.402294	-0.372942	0.965229
	C2617	C	0.389476	-0.372903	0.970095
	C2618	C	0.383347	-0.282943	0.971303
	C2619	C	0.371406	-0.282777	0.973788
	C2620	C	0.365273	-0.372765	0.975178
	C2621	C	0.371409	-0.462636	0.973999
	C2622	C	0.383345	-0.462769	0.971539
	C2623	C	0.352437	-0.372713	0.980107
	C2624	C	0.402875	-0.122947	0.909471
	C2625	C	0.390355	-0.122802	0.901756
	C2626	C	0.384304	-0.032908	0.899006
	C2627	C	0.372542	-0.032915	0.893858
	C2628	C	0.366500	-0.122811	0.891350
	C2629	C	0.372553	-0.212620	0.893931
	C2630	C	0.384320	-0.212695	0.899028
	C2631	C	0.353979	-0.123027	0.883586
	C2632	C	0.438053	-0.123108	0.910812
	C2633	C	0.450832	-0.122826	0.905489
	C2634	C	0.456967	-0.212696	0.904126
	C2635	C	0.468882	-0.212704	0.901509
	C2636	C	0.475008	-0.122757	0.900208
	C2637	C	0.468886	-0.032994	0.901645
	C2638	C	0.456964	-0.033003	0.904241
	C2639	C	0.487825	-0.123042	0.895322
	H2640	H	0.473510	-0.282615	0.900585
	H2641	H	0.452393	-0.282819	0.905205
	H2642	H	0.472339	-0.213796	0.983690
	H2643	H	0.451537	-0.213284	0.974722
	H2644	H	0.420653	-0.372983	0.897664
	H2645	H	0.419591	-0.123151	0.978026
	H2646	H	0.335206	-0.122551	0.966644
	H2647	H	0.505248	-0.372784	0.906835
	H2648	H	0.388868	-0.282778	0.901001
	H2649	H	0.368046	-0.282919	0.891994
	H2650	H	0.366791	-0.212730	0.974502
	H2651	H	0.387955	-0.213166	0.970185
	H2652	H	0.367982	0.037299	0.891835
	H2653	H	0.388781	0.037252	0.900992
	H2654	H	0.387929	-0.532716	0.970594
	H2655	H	0.366817	-0.532410	0.974925
	H2656	H	0.451338	-0.532734	0.975356
	H2657	H	0.472189	-0.533302	0.984411
	H2658	H	0.452351	0.036945	0.905505
	H2659	H	0.473491	0.036960	0.900772
	Al2660	Al	0.420141	0.002031	0.937999
	Al2661	Al	0.420187	0.252008	0.938069
	Al2662	Al	0.336819	0.252580	0.854993
	Al2663	Al	0.336754	0.002043	0.854924
	O2664	O	0.432456	0.042881	0.963528
	O2665	O	0.420337	0.127043	0.918566
	O2666	O	0.419966	0.377238	0.957370
	O2667	O	0.491118	0.042427	0.995712
	O2668	O	0.407287	0.043111	0.963039
	O2669	O	0.347402	0.043416	0.982168
	O2670	O	0.407220	0.211413	0.962667
	O2671	O	0.407905	0.293420	0.912423
	O2672	O	0.349142	0.292740	0.880360
	O2673	O	0.432434	0.211083	0.963769
	O2674	O	0.433053	0.292536	0.913134
	O2675	O	0.492882	0.292842	0.893152
	O2676	O	0.347386	0.211671	0.982313
	O2677	O	0.407852	0.461831	0.912621
	O2678	O	0.349075	0.461002	0.880537
	O2679	O	0.492824	0.461400	0.893351
	O2680	O	0.433026	0.460893	0.912960
	O2681	O	0.491194	0.210690	0.995838
	O2682	O	0.334765	0.377690	0.987649
	O2683	O	0.505374	0.127289	0.885963
	C2684	C	0.467675	0.216734	0.982195
	C2685	C	0.473701	0.126787	0.985012
	C2686	C	0.467673	0.036984	0.982359
	C2687	C	0.455925	0.037025	0.977282
	C2688	C	0.449872	0.126824	0.974485
	C2689	C	0.455932	0.216665	0.977148
	C2690	C	0.437347	0.126906	0.966894
	C2691	C	0.486235	0.126619	0.992570
	C2692	C	0.402216	0.127240	0.965074
	C2693	C	0.389414	0.127390	0.970135
	C2694	C	0.383308	0.217452	0.971430
	C2695	C	0.371381	0.217531	0.973939
	C2696	C	0.365251	0.127722	0.975271
	C2697	C	0.371358	0.037789	0.973896
	C2698	C	0.383297	0.037732	0.971414
	C2699	C	0.352449	0.127623	0.980197
	C2700	C	0.402949	0.377430	0.909345
	C2701	C	0.390441	0.377309	0.901524
	C2702	C	0.384380	0.466976	0.898852
	C2703	C	0.372603	0.467041	0.893782
	C2704	C	0.366575	0.377213	0.891124
	C2705	C	0.372656	0.287429	0.893862
	C2706	C	0.384413	0.287386	0.898877
	C2707	C	0.354040	0.376946	0.883566
	C2708	C	0.438042	0.376770	0.910788
	C2709	C	0.450838	0.376945	0.905563
	C2710	C	0.456938	0.286989	0.904016
	C2711	C	0.468876	0.286872	0.901437
	C2712	C	0.475024	0.376857	0.900325
	C2713	C	0.468892	0.466733	0.901652
	C2714	C	0.456969	0.466829	0.904250
	C2715	C	0.487822	0.377010	0.895277
	H2716	H	0.473488	0.217107	0.900354
	H2717	H	0.452303	0.217144	0.904913
	H2718	H	0.472240	0.286701	0.984071
	H2719	H	0.451342	0.286539	0.975169
	H2720	H	0.420282	0.126965	0.897813
	H2721	H	0.419624	0.377676	0.978175
	H2722	H	0.335006	0.377423	0.966878
	H2723	H	0.505163	0.126899	0.906877
	H2724	H	0.388938	0.217222	0.901028
	H2725	H	0.368094	0.217287	0.892048
	H2726	H	0.366782	0.287900	0.974803
	H2727	H	0.387925	0.287403	0.970401
	H2728	H	0.368063	0.537148	0.891981
	H2729	H	0.388895	0.537019	0.900934
	H2730	H	0.387861	-0.032289	0.970423
	H2731	H	0.366735	-0.032123	0.974622
	H2732	H	0.451391	-0.032913	0.975513
	H2733	H	0.472229	-0.032793	0.984353
	H2734	H	0.452370	0.536990	0.905344
	H2735	H	0.473486	0.536682	0.900691
	Al2736	Al	0.586742	-0.499656	0.105211
	Al2737	Al	0.586755	-0.249828	0.104962
	Al2738	Al	0.503462	-0.248716	0.021588
	Al2739	Al	0.503477	-0.498496	0.021297
	O2740	O	0.598970	-0.458631	0.130910
	O2741	O	0.586952	-0.374897	0.085605
	O2742	O	0.586557	-0.124884	0.124505
	O2743	O	0.657667	-0.460665	0.163193
	O2744	O	0.573891	-0.458609	0.130015
	O2745	O	0.514006	-0.457805	0.149157
	O2746	O	0.573924	-0.290303	0.130061
	O2747	O	0.574384	-0.208877	0.079529
	O2748	O	0.515681	-0.207899	0.047291
	O2749	O	0.599098	-0.290538	0.130326
	O2750	O	0.599571	-0.208422	0.079846
	O2751	O	0.659410	-0.210350	0.060336
	O2752	O	0.514067	-0.289350	0.149220
	O2753	O	0.574416	-0.040556	0.079417
	O2754	O	0.515735	-0.039438	0.046813
	O2755	O	0.659506	-0.042281	0.060605
	O2756	O	0.599682	-0.040240	0.080390
	O2757	O	0.657718	-0.292417	0.162862
	O2758	O	0.501418	-0.123430	0.154645
	O2759	O	0.672006	-0.375995	0.053299
	C2760	C	0.634330	-0.285799	0.148798
	C2761	C	0.640278	-0.375781	0.152004
	C2762	C	0.634211	-0.465400	0.149461
	C2763	C	0.622461	-0.465077	0.144256
	C2764	C	0.616486	-0.375130	0.141317
	C2765	C	0.622581	-0.285434	0.143548
	C2766	C	0.603935	-0.374681	0.133681
	C2767	C	0.652779	-0.376438	0.159847
	C2768	C	0.568872	-0.374244	0.132156
	C2769	C	0.556065	-0.374188	0.137025
	C2770	C	0.549973	-0.284123	0.138681
	C2771	C	0.538030	-0.283846	0.141136
	C2772	C	0.531896	-0.373614	0.142158
	C2773	C	0.538005	-0.463649	0.140654
	C2774	C	0.549952	-0.463970	0.138224
	C2775	C	0.519079	-0.373673	0.147121
	C2776	C	0.569477	-0.124702	0.076297
	C2777	C	0.556972	-0.124233	0.068544
	C2778	C	0.550952	-0.034316	0.065798
	C2779	C	0.539194	-0.033983	0.060633
	C2780	C	0.533153	-0.123715	0.057930
	C2781	C	0.539145	-0.213603	0.060795
	C2782	C	0.550897	-0.213739	0.065950
	C2783	C	0.520650	-0.123466	0.050155
	C2784	C	0.604656	-0.124649	0.077978
	C2785	C	0.617455	-0.124733	0.072745
	C2786	C	0.623525	-0.214848	0.071162
	C2787	C	0.635453	-0.215134	0.068612
	C2788	C	0.641623	-0.125642	0.067556
	C2789	C	0.635543	-0.035626	0.069079
	C2790	C	0.623619	-0.035330	0.071597
	C2791	C	0.654425	-0.126064	0.062597
	H2792	H	0.640002	-0.285271	0.067382
	H2793	H	0.618890	-0.284770	0.071898
	H2794	H	0.638914	-0.215893	0.150634
	H2795	H	0.618083	-0.214975	0.141463
	H2796	H	0.587098	-0.374936	0.064744
	H2797	H	0.586382	-0.125387	0.145330
	H2798	H	0.501772	-0.123562	0.133913
	H2799	H	0.671747	-0.375564	0.074001
	H2800	H	0.555406	-0.283938	0.067932
	H2801	H	0.534597	-0.283534	0.058925
	H2802	H	0.533435	-0.213727	0.142119
	H2803	H	0.554560	-0.214033	0.137886
	H2804	H	0.534689	0.036224	0.058545
	H2805	H	0.555480	0.035727	0.067702
	H2806	H	0.554571	-0.534094	0.137082
	H2807	H	0.533402	-0.533750	0.141322
	H2808	H	0.617887	-0.534988	0.142653
	H2809	H	0.638693	-0.535488	0.151880
	H2810	H	0.619069	0.034863	0.072697
	H2811	H	0.640193	0.034063	0.068138
	Al2812	Al	0.586723	0.000152	0.105145
	Al2813	Al	0.586759	0.250133	0.105143
	Al2814	Al	0.503468	0.251649	0.021449
	Al2815	Al	0.503441	0.001354	0.021264
	O2816	O	0.599006	0.041096	0.130861
	O2817	O	0.586944	0.125229	0.085778
	O2818	O	0.586491	0.375174	0.124679
	O2819	O	0.657786	0.039095	0.162928
	O2820	O	0.573859	0.041047	0.129950
	O2821	O	0.513974	0.042903	0.149128
	O2822	O	0.573902	0.209435	0.130205
	O2823	O	0.574382	0.290990	0.079780
	O2824	O	0.515794	0.292088	0.046950
	O2825	O	0.599092	0.209279	0.130671
	O2826	O	0.599560	0.291072	0.080072
	O2827	O	0.659410	0.289510	0.060119
	O2828	O	0.514037	0.211371	0.149392
	O2829	O	0.574470	0.459165	0.079429
	O2830	O	0.515842	0.460592	0.046880
	O2831	O	0.659459	0.458049	0.060463
	O2832	O	0.599621	0.459448	0.080264
	O2833	O	0.657820	0.207454	0.162576
	O2834	O	0.501373	0.376531	0.154753
	O2835	O	0.671997	0.123785	0.053197
	C2836	C	0.634331	0.213784	0.149209
	C2837	C	0.640343	0.123572	0.152053
	C2838	C	0.634255	0.033871	0.149516
	C2839	C	0.622520	0.034359	0.144430
	C2840	C	0.616492	0.124457	0.141627
	C2841	C	0.622592	0.214255	0.144127
	C2842	C	0.603952	0.124914	0.133905
	C2843	C	0.652897	0.123358	0.159670
	C2844	C	0.568826	0.125224	0.132246
	C2845	C	0.556021	0.125557	0.137137
	C2846	C	0.549968	0.215610	0.138610
	C2847	C	0.538019	0.216017	0.141032
	C2848	C	0.531851	0.126502	0.142141
	C2849	C	0.537912	0.036236	0.140607
	C2850	C	0.549858	0.035753	0.138202
	C2851	C	0.519039	0.126891	0.147128
	C2852	C	0.569526	0.375128	0.076444
	C2853	C	0.557034	0.375716	0.068446
	C2854	C	0.551031	0.465806	0.065661
	C2855	C	0.539287	0.466180	0.060405
	C2856	C	0.533239	0.376211	0.057760
	C2857	C	0.539276	0.286275	0.060451
	C2858	C	0.551005	0.285776	0.065700
	C2859	C	0.520741	0.376115	0.049980
	C2860	C	0.604615	0.375203	0.077852
	C2861	C	0.617385	0.374737	0.072571
	C2862	C	0.623497	0.284666	0.070897
	C2863	C	0.635436	0.284384	0.068314
	C2864	C	0.641587	0.374247	0.067278
	C2865	C	0.635472	0.464374	0.068890
	C2866	C	0.623528	0.464533	0.071455
	C2867	C	0.654389	0.373859	0.062383
	H2868	H	0.640023	0.214513	0.067253
	H2869	H	0.618858	0.214771	0.071712
	H2870	H	0.638925	0.283462	0.151065
	H2871	H	0.618060	0.284277	0.142144
	H2872	H	0.587290	0.125208	0.064971
	H2873	H	0.585840	0.374814	0.145462
	H2874	H	0.501892	0.376165	0.133939
	H2875	H	0.672021	0.124373	0.073995
	H2876	H	0.555524	0.215677	0.067750
	H2877	H	0.534738	0.216323	0.058471
	H2878	H	0.533475	0.286204	0.142027
	H2879	H	0.554610	0.285377	0.137821
	H2880	H	0.534757	0.536249	0.058323
	H2881	H	0.555598	0.535588	0.067674
	H2882	H	0.554413	-0.034487	0.137111
	H2883	H	0.533261	-0.033578	0.141304
	H2884	H	0.617932	-0.035356	0.142652
	H2885	H	0.638767	-0.036210	0.151681
	H2886	H	0.618921	0.534778	0.072797
	H2887	H	0.640115	0.534281	0.068334
	Al2888	Al	0.584510	-0.499225	0.257223
	Al2889	Al	0.584447	-0.249089	0.257339
	Al2890	Al	0.501154	-0.248626	0.173987
	Al2891	Al	0.501137	-0.498848	0.174163
	O2892	O	0.596774	-0.458327	0.282868
	O2893	O	0.584696	-0.373997	0.237876
	O2894	O	0.584169	-0.124408	0.276760
	O2895	O	0.655466	-0.460494	0.315225
	O2896	O	0.571588	-0.458377	0.282103
	O2897	O	0.511740	-0.457318	0.301326
	O2898	O	0.571654	-0.290164	0.282430
	O2899	O	0.572100	-0.208411	0.231964
	O2900	O	0.513388	-0.207549	0.199709
	O2901	O	0.596807	-0.289963	0.282837
	O2902	O	0.597230	-0.208246	0.231935
	O2903	O	0.657210	-0.210543	0.213368
	O2904	O	0.511765	-0.288910	0.301368
	O2905	O	0.572132	-0.040083	0.231777
	O2906	O	0.513462	-0.039025	0.199694
	O2907	O	0.657244	-0.042506	0.213534
	O2908	O	0.597391	-0.039963	0.232470
	O2909	O	0.655603	-0.292571	0.314739
	O2910	O	0.499124	-0.123216	0.306818
	O2911	O	0.669859	-0.376605	0.208084
	C2912	C	0.632085	-0.285691	0.301294
	C2913	C	0.638059	-0.375731	0.304322
	C2914	C	0.631948	-0.465413	0.301764
	C2915	C	0.620201	-0.464853	0.296622
	C2916	C	0.614211	-0.374569	0.293814
	C2917	C	0.620325	-0.284966	0.296148
	C2918	C	0.601690	-0.374130	0.286027
	C2919	C	0.650610	-0.376469	0.311925
	C2920	C	0.566570	-0.374016	0.284402
	C2921	C	0.553751	-0.373879	0.289156
	C2922	C	0.547668	-0.283704	0.290605
	C2923	C	0.535728	-0.283568	0.293007
	C2924	C	0.529588	-0.373403	0.294243
	C2925	C	0.535687	-0.463458	0.293012
	C2926	C	0.547620	-0.463665	0.290591
	C2927	C	0.516783	-0.373244	0.299217
	C2928	C	0.567178	-0.124093	0.228773
	C2929	C	0.554666	-0.123801	0.220894
	C2930	C	0.548642	-0.033853	0.218177
	C2931	C	0.536889	-0.033713	0.213049
	C2932	C	0.530835	-0.123604	0.210471
	C2933	C	0.536853	-0.213464	0.213143
	C2934	C	0.548601	-0.213572	0.218265
	C2935	C	0.518336	-0.123357	0.202761
	C2936	C	0.602350	-0.124466	0.230114
	C2937	C	0.615147	-0.125248	0.225208
	C2938	C	0.621221	-0.215331	0.223765
	C2939	C	0.633165	-0.215882	0.221508
	C2940	C	0.639356	-0.126319	0.220461
	C2941	C	0.633278	-0.036420	0.221919
	C2942	C	0.621347	-0.035751	0.224193
	C2943	C	0.652174	-0.126401	0.215534
	H2944	H	0.637753	-0.285883	0.220631
	H2945	H	0.616556	-0.285236	0.224497
	H2946	H	0.636672	-0.215860	0.303077
	H2947	H	0.615837	-0.214766	0.294047
	H2948	H	0.585130	-0.373685	0.217166
	H2949	H	0.583776	-0.124527	0.297480
	H2950	H	0.499662	-0.123654	0.286006
	H2951	H	0.669699	-0.376852	0.228874
	H2952	H	0.553152	-0.283628	0.220061
	H2953	H	0.532300	-0.283291	0.210994
	H2954	H	0.531107	-0.213613	0.293794
	H2955	H	0.552287	-0.213674	0.289620
	H2956	H	0.532412	0.036515	0.210850
	H2957	H	0.553201	0.035875	0.220016
	H2958	H	0.552181	-0.533781	0.289564
	H2959	H	0.531076	-0.533346	0.293787
	H2960	H	0.615622	-0.534958	0.294882
	H2961	H	0.636424	-0.535604	0.303959
	H2962	H	0.616805	0.034430	0.225260
	H2963	H	0.637933	0.033473	0.221227
	Al2964	Al	0.584447	0.000730	0.257395
	Al2965	Al	0.584430	0.250652	0.257362
	Al2966	Al	0.501107	0.251595	0.174318
	Al2967	Al	0.501133	0.001542	0.174089
	O2968	O	0.596728	0.041044	0.283021
	O2969	O	0.584685	0.125686	0.238035
	O2970	O	0.584284	0.376039	0.276682
	O2971	O	0.655432	0.039262	0.314965
	O2972	O	0.571601	0.041819	0.282492
	O2973	O	0.511657	0.042062	0.301264
	O2974	O	0.571574	0.210293	0.282300
	O2975	O	0.572242	0.292086	0.231424
	O2976	O	0.513407	0.292127	0.199950
	O2977	O	0.596760	0.209426	0.282945
	O2978	O	0.597324	0.291401	0.232426
	O2979	O	0.657216	0.289422	0.213311
	O2980	O	0.511722	0.210372	0.301467
	O2981	O	0.572176	0.460354	0.231653
	O2982	O	0.513421	0.460318	0.199863
	O2983	O	0.657287	0.457849	0.213605
	O2984	O	0.597389	0.459683	0.232480
	O2985	O	0.655531	0.207356	0.314804
	O2986	O	0.499056	0.376604	0.306826
	O2987	O	0.669807	0.123886	0.207878
	C2988	C	0.632040	0.214349	0.301276
	C2989	C	0.638027	0.124086	0.304303
	C2990	C	0.631983	0.034319	0.301617
	C2991	C	0.620209	0.034698	0.296477
	C2992	C	0.614182	0.124750	0.293857
	C2993	C	0.620274	0.214488	0.296160
	C2994	C	0.601648	0.125108	0.286156
	C2995	C	0.650578	0.123506	0.311825
	C2996	C	0.566556	0.126057	0.284601
	C2997	C	0.553728	0.126015	0.289396
	C2998	C	0.547584	0.215827	0.290594
	C2999	C	0.535657	0.215796	0.292922
	C3000	C	0.529527	0.125932	0.294174
	C3001	C	0.535670	0.036106	0.293018
	C3002	C	0.547608	0.036031	0.290666
	C3003	C	0.516710	0.126170	0.299331
	C3004	C	0.567315	0.376050	0.228510
	C3005	C	0.554757	0.376018	0.220875
	C3006	C	0.548727	0.466138	0.218144
	C3007	C	0.536967	0.466193	0.213189
	C3008	C	0.530900	0.376389	0.210670
	C3009	C	0.536928	0.286338	0.213433
	C3010	C	0.548684	0.286418	0.218405
	C3011	C	0.518338	0.376183	0.203083
	C3012	C	0.602399	0.375409	0.230317
	C3013	C	0.615197	0.375043	0.225375
	C3014	C	0.621287	0.285001	0.223972
	C3015	C	0.633212	0.284491	0.221649
	C3016	C	0.639406	0.374232	0.220585
	C3017	C	0.633324	0.464303	0.222110
	C3018	C	0.621388	0.464745	0.224442
	C3019	C	0.652213	0.373705	0.215529
	H3020	H	0.637785	0.214137	0.220633
	H3021	H	0.616666	0.215154	0.224788
	H3022	H	0.636622	0.284536	0.303053
	H3023	H	0.615796	0.284972	0.294029
	H3024	H	0.585178	0.126082	0.217269
	H3025	H	0.584089	0.376294	0.297418
	H3026	H	0.499350	0.376315	0.285984
	H3027	H	0.669151	0.124436	0.228537
	H3028	H	0.553220	0.216224	0.220403
	H3029	H	0.532419	0.216082	0.211530
	H3030	H	0.531032	0.285651	0.293613
	H3031	H	0.552173	0.285648	0.289548
	H3032	H	0.532402	0.536012	0.211059
	H3033	H	0.553282	0.536119	0.219997
	H3034	H	0.552217	-0.033897	0.289656
	H3035	H	0.531051	-0.033577	0.293730
	H3036	H	0.615677	-0.035348	0.294539
	H3037	H	0.636500	-0.036155	0.303677
	H3038	H	0.616808	0.534819	0.225623
	H3039	H	0.638001	0.533910	0.221491
	Al3040	Al	0.582180	-0.499483	0.409692
	Al3041	Al	0.582202	-0.249309	0.409696
	Al3042	Al	0.498828	-0.248321	0.326244
	Al3043	Al	0.498846	-0.498236	0.326064
	O3044	O	0.594464	-0.458790	0.435565
	O3045	O	0.582428	-0.374668	0.390346
	O3046	O	0.581923	-0.124136	0.428989
	O3047	O	0.653235	-0.459961	0.467134
	O3048	O	0.569261	-0.458631	0.434454
	O3049	O	0.509373	-0.457582	0.453377
	O3050	O	0.569293	-0.290325	0.434552
	O3051	O	0.569880	-0.208845	0.383952
	O3052	O	0.511155	-0.207570	0.351852
	O3053	O	0.594488	-0.290615	0.435314
	O3054	O	0.595039	-0.208444	0.384633
	O3055	O	0.654865	-0.210382	0.365395
	O3056	O	0.509404	-0.289349	0.453573
	O3057	O	0.569929	-0.040578	0.383891
	O3058	O	0.511164	-0.039332	0.351764
	O3059	O	0.654907	-0.042064	0.365516
	O3060	O	0.595074	-0.040096	0.384667
	O3061	O	0.653284	-0.291585	0.467099
	O3062	O	0.496794	-0.123262	0.459175
	O3063	O	0.667612	-0.375998	0.360130
	C3064	C	0.629789	-0.285122	0.453395
	C3065	C	0.635802	-0.375207	0.456283
	C3066	C	0.629743	-0.465176	0.453715
	C3067	C	0.617978	-0.464910	0.448686
	C3068	C	0.611953	-0.374899	0.445874
	C3069	C	0.618008	-0.284889	0.448336
	C3070	C	0.599384	-0.374703	0.438524
	C3071	C	0.648327	-0.375744	0.463957
	C3072	C	0.564238	-0.374355	0.436526
	C3073	C	0.551418	-0.374161	0.441512
	C3074	C	0.545287	-0.284262	0.442639
	C3075	C	0.533357	-0.284069	0.444993
	C3076	C	0.527228	-0.373627	0.446237
	C3077	C	0.533343	-0.463438	0.444941
	C3078	C	0.545273	-0.463773	0.442607
	C3079	C	0.514420	-0.373536	0.451362
	C3080	C	0.564999	-0.124613	0.380728
	C3081	C	0.552460	-0.124070	0.373096
	C3082	C	0.546441	-0.033946	0.370372
	C3083	C	0.534689	-0.033618	0.365206
	C3084	C	0.528624	-0.123345	0.362532
	C3085	C	0.534638	-0.213338	0.365247
	C3086	C	0.546376	-0.213747	0.370446
	C3087	C	0.516096	-0.123432	0.354840
	C3088	C	0.600082	-0.124327	0.382521
	C3089	C	0.612872	-0.124910	0.377572
	C3090	C	0.618930	-0.215068	0.376160
	C3091	C	0.630857	-0.215461	0.373741
	C3092	C	0.637043	-0.125760	0.372618
	C3093	C	0.630984	-0.035634	0.374134
	C3094	C	0.619043	-0.035173	0.376469
	C3095	C	0.649854	-0.126069	0.367534
	H3096	H	0.635438	-0.285678	0.372811
	H3097	H	0.614274	-0.284912	0.377245
	H3098	H	0.634356	-0.215159	0.455122
	H3099	H	0.613477	-0.214813	0.446312
	H3100	H	0.582846	-0.375109	0.369541
	H3101	H	0.581528	-0.123724	0.449709
	H3102	H	0.497108	-0.122784	0.438448
	H3103	H	0.667529	-0.376167	0.380920
	H3104	H	0.550879	-0.284031	0.372680
	H3105	H	0.530075	-0.283271	0.363498
	H3106	H	0.528764	-0.214214	0.445850
	H3107	H	0.549878	-0.214240	0.441655
	H3108	H	0.530151	0.036609	0.363368
	H3109	H	0.550981	0.035969	0.372533
	H3110	H	0.549858	-0.533953	0.441567
	H3111	H	0.528749	-0.533482	0.445816
	H3112	H	0.613411	-0.535066	0.446956
	H3113	H	0.634259	-0.535579	0.455677
	H3114	H	0.614471	0.034813	0.377741
	H3115	H	0.635621	0.034039	0.373459
	Al3116	Al	0.582180	0.000716	0.409452
	Al3117	Al	0.582151	0.250585	0.409454
	Al3118	Al	0.498826	0.251439	0.326373
	Al3119	Al	0.498846	0.001423	0.326299
	O3120	O	0.594400	0.041789	0.435290
	O3121	O	0.582469	0.125818	0.389973
	O3122	O	0.581875	0.375189	0.429081
	O3123	O	0.653147	0.040189	0.467511
	O3124	O	0.569261	0.041412	0.434247
	O3125	O	0.509448	0.042215	0.453665
	O3126	O	0.569300	0.209756	0.434428
	O3127	O	0.569803	0.291125	0.383951
	O3128	O	0.511086	0.292282	0.351976
	O3129	O	0.594474	0.209980	0.435059
	O3130	O	0.594987	0.291752	0.384532
	O3131	O	0.654848	0.289059	0.365239
	O3132	O	0.509375	0.210278	0.453310
	O3133	O	0.569854	0.459495	0.384112
	O3134	O	0.511117	0.460452	0.351688
	O3135	O	0.654986	0.457436	0.365703
	O3136	O	0.595082	0.459971	0.384949
	O3137	O	0.653189	0.208427	0.467270
	O3138	O	0.496831	0.376401	0.459062
	O3139	O	0.667535	0.123558	0.359966
	C3140	C	0.629757	0.214847	0.453473
	C3141	C	0.635749	0.124734	0.456342
	C3142	C	0.629647	0.035314	0.453901
	C3143	C	0.617893	0.035631	0.448783
	C3144	C	0.611891	0.125631	0.445962
	C3145	C	0.617999	0.215312	0.448346
	C3146	C	0.599368	0.125818	0.438190
	C3147	C	0.648258	0.124484	0.464243
	C3148	C	0.564239	0.125626	0.436469
	C3149	C	0.551445	0.126071	0.441461
	C3150	C	0.545326	0.216115	0.442649
	C3151	C	0.533387	0.216273	0.445014
	C3152	C	0.527259	0.126295	0.446468
	C3153	C	0.533371	0.036183	0.445164
	C3154	C	0.545309	0.036127	0.442800
	C3155	C	0.514449	0.126366	0.451344
	C3156	C	0.564916	0.375641	0.380898
	C3157	C	0.552370	0.375907	0.373119
	C3158	C	0.546333	0.465950	0.370543
	C3159	C	0.534563	0.465944	0.365441
	C3160	C	0.528540	0.376081	0.362726
	C3161	C	0.534587	0.286097	0.365258
	C3162	C	0.546345	0.286110	0.370350
	C3163	C	0.516007	0.376283	0.354990
	C3164	C	0.600077	0.375639	0.382543
	C3165	C	0.612878	0.374976	0.377603
	C3166	C	0.618953	0.284947	0.376117
	C3167	C	0.630897	0.284622	0.373747
	C3168	C	0.637079	0.374156	0.372563
	C3169	C	0.630989	0.464344	0.374006
	C3170	C	0.619040	0.464597	0.376354
	C3171	C	0.649869	0.373552	0.367565
	H3172	H	0.635481	0.214458	0.372896
	H3173	H	0.614292	0.215067	0.377074
	H3174	H	0.634318	0.284568	0.455373
	H3175	H	0.613518	0.285564	0.446276
	H3176	H	0.582956	0.125872	0.369262
	H3177	H	0.581368	0.374983	0.449844
	H3178	H	0.497241	0.376226	0.438122
	H3179	H	0.667058	0.123135	0.380831
	H3180	H	0.550871	0.216060	0.372165
	H3181	H	0.530077	0.215960	0.363221
	H3182	H	0.528806	0.286244	0.445962
	H3183	H	0.549942	0.285882	0.441894
	H3184	H	0.530044	0.536087	0.363550
	H3185	H	0.550847	0.535921	0.372576
	H3186	H	0.549905	-0.034050	0.442095
	H3187	H	0.528732	-0.033891	0.446169
	H3188	H	0.613322	-0.034299	0.447018
	H3189	H	0.634149	-0.034960	0.456128
	H3190	H	0.614479	0.534738	0.377436
	H3191	H	0.635620	0.534039	0.373415
	Al3192	Al	0.579878	-0.499020	0.561806
	Al3193	Al	0.579907	-0.248865	0.561657
	Al3194	Al	0.496494	-0.248398	0.478513
	Al3195	Al	0.496555	-0.498142	0.478374
	O3196	O	0.592135	-0.458028	0.587607
	O3197	O	0.580074	-0.374406	0.542242
	O3198	O	0.579668	-0.124144	0.581112
	O3199	O	0.650900	-0.458829	0.619256
	O3200	O	0.566978	-0.458318	0.586719
	O3201	O	0.507194	-0.457489	0.606635
	O3202	O	0.567049	-0.290005	0.586727
	O3203	O	0.567582	-0.208181	0.536245
	O3204	O	0.508810	-0.207665	0.504234
	O3205	O	0.592218	-0.289935	0.587129
	O3206	O	0.592744	-0.208224	0.536672
	O3207	O	0.652646	-0.209407	0.517635
	O3208	O	0.507211	-0.289000	0.606792
	O3209	O	0.567597	-0.039702	0.535988
	O3210	O	0.508860	-0.039363	0.504284
	O3211	O	0.652691	-0.041341	0.518089
	O3212	O	0.592787	-0.039962	0.536713
	O3213	O	0.650980	-0.290641	0.618829
	O3214	O	0.494683	-0.123007	0.614070
	O3215	O	0.665187	-0.375909	0.512400
	C3216	C	0.627471	-0.284400	0.605687
	C3217	C	0.633476	-0.374539	0.608429
	C3218	C	0.627391	-0.464291	0.606002
	C3219	C	0.615611	-0.464178	0.601062
	C3220	C	0.609636	-0.374074	0.598111
	C3221	C	0.615690	-0.284183	0.600737
	C3222	C	0.597075	-0.374080	0.590552
	C3223	C	0.646043	-0.374842	0.615918
	C3224	C	0.561955	-0.373981	0.588810
	C3225	C	0.549174	-0.373629	0.594130
	C3226	C	0.543069	-0.283728	0.595699
	C3227	C	0.531140	-0.283490	0.598356
	C3228	C	0.525003	-0.373365	0.599410
	C3229	C	0.531102	-0.463180	0.597997
	C3230	C	0.543035	-0.463327	0.595381
	C3231	C	0.512230	-0.373143	0.604553
	C3232	C	0.562671	-0.123813	0.532918
	C3233	C	0.550153	-0.123692	0.525246
	C3234	C	0.544098	-0.033818	0.522575
	C3235	C	0.532325	-0.033798	0.517540
	C3236	C	0.526313	-0.123693	0.514821
	C3237	C	0.532368	-0.213583	0.517417
	C3238	C	0.544146	-0.213465	0.522438
	C3239	C	0.513749	-0.123596	0.507348
	C3240	C	0.597797	-0.124292	0.534527
	C3241	C	0.610625	-0.124682	0.529562
	C3242	C	0.616740	-0.214556	0.528323
	C3243	C	0.628670	-0.214667	0.526055
	C3244	C	0.634805	-0.125058	0.524776
	C3245	C	0.628702	-0.035145	0.526254
	C3246	C	0.616765	-0.035004	0.528466
	C3247	C	0.647612	-0.125243	0.519934
	H3248	H	0.633241	-0.284848	0.525116
	H3249	H	0.612126	-0.284390	0.529050
	H3250	H	0.632020	-0.214369	0.607252
	H3251	H	0.611184	-0.213872	0.598723
	H3252	H	0.580307	-0.374124	0.521472
	H3253	H	0.579521	-0.124799	0.601820
	H3254	H	0.494980	-0.122743	0.593509
	H3255	H	0.664755	-0.375913	0.533086
	H3256	H	0.548701	-0.283583	0.524244
	H3257	H	0.527890	-0.283575	0.515363
	H3258	H	0.526579	-0.213552	0.599675
	H3259	H	0.547695	-0.213965	0.594967
	H3260	H	0.527746	0.036187	0.515529
	H3261	H	0.548576	0.036242	0.524492
	H3262	H	0.547608	-0.533350	0.594446
	H3263	H	0.526478	-0.533179	0.599063
	H3264	H	0.611061	-0.534214	0.599325
	H3265	H	0.631932	-0.534548	0.607906
	H3266	H	0.612161	0.035278	0.529379
	H3267	H	0.633331	0.034583	0.525524
	Al3268	Al	0.579876	0.000603	0.561712
	Al3269	Al	0.579875	0.250862	0.561651
	Al3270	Al	0.496512	0.251599	0.478393
	Al3271	Al	0.496564	0.001593	0.478531
	O3272	O	0.592185	0.041737	0.587290
	O3273	O	0.580164	0.125827	0.542132
	O3274	O	0.579710	0.375915	0.581300
	O3275	O	0.650931	0.041145	0.619231
	O3276	O	0.567067	0.041617	0.586627
	O3277	O	0.507224	0.042446	0.606754
	O3278	O	0.567012	0.209679	0.586700
	O3279	O	0.567533	0.291877	0.536240
	O3280	O	0.508845	0.292629	0.504042
	O3281	O	0.592237	0.210024	0.587169
	O3282	O	0.592722	0.291958	0.536506
	O3283	O	0.652527	0.290265	0.517809
	O3284	O	0.507245	0.210837	0.606538
	O3285	O	0.567601	0.460083	0.536233
	O3286	O	0.508901	0.461061	0.503869
	O3287	O	0.652616	0.458741	0.517786
	O3288	O	0.592743	0.460533	0.536859
	O3289	O	0.650900	0.209348	0.619300
	O3290	O	0.494648	0.376987	0.613845
	O3291	O	0.665210	0.124216	0.512468
	C3292	C	0.627457	0.215383	0.605528
	C3293	C	0.633480	0.125444	0.608393
	C3294	C	0.627420	0.035825	0.606011
	C3295	C	0.615689	0.035996	0.600903
	C3296	C	0.609668	0.125718	0.597899
	C3297	C	0.615710	0.215638	0.600404
	C3298	C	0.597142	0.125826	0.590367
	C3299	C	0.645986	0.125220	0.616150
	C3300	C	0.562004	0.125550	0.588943
	C3301	C	0.549217	0.125782	0.594242
	C3302	C	0.543107	0.215736	0.595758
	C3303	C	0.531186	0.215885	0.598359
	C3304	C	0.525041	0.126184	0.599511
	C3305	C	0.531155	0.036297	0.598198
	C3306	C	0.543079	0.036131	0.595599
	C3307	C	0.512243	0.126550	0.604564
	C3308	C	0.562670	0.376130	0.533102
	C3309	C	0.550109	0.376292	0.525474
	C3310	C	0.544082	0.466107	0.522774
	C3311	C	0.532337	0.466395	0.517582
	C3312	C	0.526289	0.376639	0.514839
	C3313	C	0.532313	0.286682	0.517684
	C3314	C	0.544063	0.286460	0.522864
	C3315	C	0.513757	0.376691	0.507171
	C3316	C	0.597761	0.376142	0.534586
	C3317	C	0.610559	0.375893	0.529448
	C3318	C	0.616632	0.285624	0.528138
	C3319	C	0.628553	0.285142	0.525850
	C3320	C	0.634715	0.374980	0.524643
	C3321	C	0.628653	0.465254	0.526220
	C3322	C	0.616728	0.465646	0.528561
	C3323	C	0.647522	0.374655	0.519804
	H3324	H	0.633145	0.215021	0.524750
	H3325	H	0.611986	0.215655	0.528950
	H3326	H	0.632050	0.285113	0.607251
	H3327	H	0.611222	0.285645	0.598293
	H3328	H	0.580446	0.125826	0.521523
	H3329	H	0.579587	0.375179	0.602089
	H3330	H	0.494756	0.377587	0.593139
	H3331	H	0.664691	0.124092	0.533238
	H3332	H	0.548577	0.216472	0.524848
	H3333	H	0.527733	0.216922	0.515796
	H3334	H	0.526575	0.285679	0.599465
	H3335	H	0.547700	0.285901	0.594783
	H3336	H	0.527830	0.536830	0.515605
	H3337	H	0.548658	0.535909	0.524763
	H3338	H	0.547710	-0.033762	0.594482
	H3339	H	0.526577	-0.033596	0.599056
	H3340	H	0.611117	-0.034125	0.599048
	H3341	H	0.631907	-0.034453	0.608055
	H3342	H	0.612140	0.535779	0.529717
	H3343	H	0.633287	0.535164	0.525438
	Al3344	Al	0.578078	-0.498070	0.716247
	Al3345	Al	0.578102	-0.249042	0.716283
	Al3346	Al	0.494694	-0.247537	0.633184
	Al3347	Al	0.494698	-0.498399	0.633133
	O3348	O	0.590671	-0.457519	0.740919
	O3349	O	0.577992	-0.373652	0.697043
	O3350	O	0.578341	-0.123436	0.735536
	O3351	O	0.648742	-0.459147	0.775808
	O3352	O	0.566466	-0.457357	0.745120
	O3353	O	0.516950	-0.456844	0.838207
	O3354	O	0.566393	-0.289125	0.745060
	O3355	O	0.565480	-0.207837	0.692386
	O3356	O	0.507297	-0.207569	0.657651
	O3357	O	0.590658	-0.289231	0.740838
	O3358	O	0.590550	-0.207346	0.689866
	O3359	O	0.650366	-0.208986	0.669579
	O3360	O	0.517015	-0.288802	0.838216
	O3361	O	0.565479	-0.039602	0.692313
	O3362	O	0.507266	-0.039207	0.657667
	O3363	O	0.650393	-0.040940	0.669739
	O3364	O	0.590636	-0.039331	0.689900
	O3365	O	0.648857	-0.290882	0.775573
	O3366	O	0.505038	-0.122673	0.847581
	O3367	O	0.662990	-0.374893	0.664018
	C3368	C	0.625536	-0.284477	0.762116
	C3369	C	0.631467	-0.374316	0.764992
	C3370	C	0.625464	-0.463820	0.762126
	C3371	C	0.613809	-0.463318	0.756074
	C3372	C	0.607891	-0.373391	0.752832
	C3373	C	0.613892	-0.284036	0.756003
	C3374	C	0.595538	-0.373376	0.744283
	C3375	C	0.643902	-0.374899	0.772732
	C3376	C	0.562247	-0.373334	0.752790
	C3377	C	0.551597	-0.373432	0.772671
	C3378	C	0.546533	-0.284150	0.781970
	C3379	C	0.536698	-0.284038	0.800453
	C3380	C	0.531665	-0.373086	0.810099
	C3381	C	0.536720	-0.462237	0.800691
	C3382	C	0.546543	-0.462409	0.782247
	C3383	C	0.521142	-0.372729	0.830385
	C3384	C	0.560585	-0.123778	0.689474
	C3385	C	0.548116	-0.123699	0.682046
	C3386	C	0.542177	-0.034063	0.678778
	C3387	C	0.530526	-0.033981	0.672644
	C3388	C	0.524524	-0.123562	0.669725
	C3389	C	0.530461	-0.213272	0.673310
	C3390	C	0.542118	-0.213356	0.679441
	C3391	C	0.512129	-0.123291	0.661081
	C3392	C	0.595606	-0.123642	0.687731
	C3393	C	0.608410	-0.124069	0.682568
	C3394	C	0.614515	-0.213906	0.681081
	C3395	C	0.626442	-0.214032	0.678486
	C3396	C	0.632595	-0.124426	0.677249
	C3397	C	0.626487	-0.034659	0.678761
	C3398	C	0.614555	-0.034455	0.681338
	C3399	C	0.645353	-0.124905	0.671877
	H3400	H	0.631025	-0.284274	0.677494
	H3401	H	0.609862	-0.283501	0.682150
	H3402	H	0.630052	-0.215076	0.764615
	H3403	H	0.609428	-0.214164	0.753529
	H3404	H	0.578026	-0.372289	0.676391
	H3405	H	0.578820	-0.123569	0.756322
	H3406	H	0.504552	-0.122847	0.826789
	H3407	H	0.662673	-0.374951	0.684611
	H3408	H	0.546619	-0.282926	0.682101
	H3409	H	0.525933	-0.282864	0.671084
	H3410	H	0.532892	-0.214948	0.807696
	H3411	H	0.550335	-0.215349	0.774716
	H3412	H	0.526052	0.035738	0.669908
	H3413	H	0.546734	0.035319	0.680866
	H3414	H	0.550398	-0.531510	0.775183
	H3415	H	0.532952	-0.531306	0.808087
	H3416	H	0.609276	-0.532629	0.753692
	H3417	H	0.629964	-0.533395	0.764648
	H3418	H	0.610016	0.035572	0.682572
	H3419	H	0.631129	0.035147	0.677950
	Al3420	Al	0.578097	0.001745	0.716086
	Al3421	Al	0.578053	0.250942	0.716210
	Al3422	Al	0.494753	0.252336	0.633014
	Al3423	Al	0.494716	0.001800	0.633130
	O3424	O	0.590594	0.042712	0.740994
	O3425	O	0.577980	0.126240	0.696859
	O3426	O	0.578494	0.376338	0.735504
	O3427	O	0.648788	0.040665	0.775831
	O3428	O	0.566398	0.042399	0.744712
	O3429	O	0.516952	0.043032	0.838140
	O3430	O	0.566477	0.210405	0.745021
	O3431	O	0.565436	0.292284	0.692549
	O3432	O	0.507292	0.292567	0.657624
	O3433	O	0.590764	0.211041	0.740420
	O3434	O	0.590567	0.292450	0.689750
	O3435	O	0.650339	0.291107	0.669868
	O3436	O	0.516979	0.210951	0.837938
	O3437	O	0.565476	0.460653	0.692597
	O3438	O	0.507291	0.460903	0.657662
	O3439	O	0.650402	0.459325	0.669603
	O3440	O	0.590570	0.460693	0.689896
	O3441	O	0.648872	0.208993	0.775501
	O3442	O	0.505038	0.377192	0.847398
	O3443	O	0.662991	0.124896	0.664157
	C3444	C	0.625574	0.215351	0.761919
	C3445	C	0.631499	0.125234	0.765059
	C3446	C	0.625483	0.035735	0.762359
	C3447	C	0.613844	0.036241	0.756209
	C3448	C	0.607921	0.126244	0.752732
	C3449	C	0.613926	0.215951	0.755813
	C3450	C	0.595530	0.126586	0.744190
	C3451	C	0.643928	0.124933	0.772825
	C3452	C	0.562236	0.126225	0.752568
	C3453	C	0.551682	0.126232	0.772691
	C3454	C	0.546642	0.215213	0.782197
	C3455	C	0.536809	0.215452	0.800690
	C3456	C	0.531700	0.126585	0.810112
	C3457	C	0.536770	0.037541	0.800717
	C3458	C	0.546604	0.037315	0.782219
	C3459	C	0.521112	0.126896	0.830211
	C3460	C	0.560562	0.376618	0.689623
	C3461	C	0.548106	0.376661	0.682030
	C3462	C	0.542184	0.466455	0.678842
	C3463	C	0.530526	0.466482	0.672687
	C3464	C	0.524523	0.376830	0.669628
	C3465	C	0.530439	0.287097	0.672986
	C3466	C	0.542095	0.287055	0.679178
	C3467	C	0.512121	0.376728	0.661105
	C3468	C	0.595607	0.376588	0.687629
	C3469	C	0.608395	0.376433	0.682633
	C3470	C	0.614482	0.286335	0.681155
	C3471	C	0.626417	0.286150	0.678562
	C3472	C	0.632552	0.375795	0.677100
	C3473	C	0.626472	0.465901	0.678671
	C3474	C	0.614533	0.466044	0.681332
	C3475	C	0.645338	0.375308	0.672051
	H3476	H	0.631001	0.215889	0.677672
	H3477	H	0.609898	0.216420	0.682170
	H3478	H	0.630185	0.284410	0.764302
	H3479	H	0.609459	0.285698	0.753254
	H3480	H	0.578072	0.126846	0.676040
	H3481	H	0.579381	0.375973	0.756149
	H3482	H	0.504446	0.377312	0.826632
	H3483	H	0.662616	0.125048	0.684917
	H3484	H	0.546549	0.217407	0.681796
	H3485	H	0.525895	0.217422	0.670643
	H3486	H	0.533007	0.284573	0.807864
	H3487	H	0.550411	0.284291	0.774930
	H3488	H	0.526069	0.536392	0.670036
	H3489	H	0.546756	0.535910	0.681105
	H3490	H	0.550398	-0.031566	0.775009
	H3491	H	0.532925	-0.031540	0.807945
	H3492	H	0.609279	-0.033234	0.753972
	H3493	H	0.629936	-0.033951	0.765125
	H3494	H	0.609928	0.535999	0.682419
	H3495	H	0.631063	0.535757	0.677923
	Al3496	Al	0.588622	-0.499624	0.950096
	Al3497	Al	0.588665	-0.249014	0.949783
	Al3498	Al	0.505323	-0.248430	0.866859
	Al3499	Al	0.505325	-0.497260	0.866858
	O3500	O	0.601180	-0.458613	0.974045
	O3501	O	0.588265	-0.374635	0.930661
	O3502	O	0.588704	-0.124204	0.969214
	O3503	O	0.659277	-0.460561	1.009600
	O3504	O	0.576189	-0.458568	0.976559
	O3505	O	0.516394	-0.458029	0.996531
	O3506	O	0.576185	-0.290024	0.976543
	O3507	O	0.576094	-0.208634	0.925292
	O3508	O	0.517890	-0.206721	0.890855
	O3509	O	0.601311	-0.290022	0.973528
	O3510	O	0.600285	-0.208218	0.921251
	O3511	O	0.649696	-0.208960	0.827964
	O3512	O	0.516358	-0.289747	0.996639
	O3513	O	0.576097	-0.040115	0.925222
	O3514	O	0.517938	-0.038418	0.890723
	O3515	O	0.649845	-0.041019	0.828344
	O3516	O	0.600354	-0.040263	0.921459
	O3517	O	0.659423	-0.292011	1.009347
	O3518	O	0.503634	-0.124081	1.001934
	O3519	O	0.661751	-0.375259	0.818869
	C3520	C	0.636251	-0.285979	0.993667
	C3521	C	0.642130	-0.376015	0.997312
	C3522	C	0.636136	-0.465666	0.994098
	C3523	C	0.624480	-0.464964	0.987836
	C3524	C	0.618583	-0.374864	0.984687
	C3525	C	0.624612	-0.285353	0.987339
	C3526	C	0.606120	-0.374538	0.976855
	C3527	C	0.654513	-0.376215	1.006049
	C3528	C	0.571167	-0.374309	0.978713
	C3529	C	0.558358	-0.374265	0.983754
	C3530	C	0.552231	-0.284365	0.984931
	C3531	C	0.540309	-0.284224	0.987462
	C3532	C	0.534201	-0.374026	0.988993
	C3533	C	0.540319	-0.463984	0.987501
	C3534	C	0.552223	-0.464113	0.984995
	C3535	C	0.521401	-0.373780	0.994306
	C3536	C	0.571261	-0.124310	0.921802
	C3537	C	0.558867	-0.124134	0.913379
	C3538	C	0.552931	-0.034163	0.910282
	C3539	C	0.541264	-0.033749	0.904257
	C3540	C	0.535281	-0.123248	0.901255
	C3541	C	0.541230	-0.213227	0.904214
	C3542	C	0.552887	-0.213661	0.910257
	C3543	C	0.522839	-0.122843	0.893584
	C3544	C	0.604515	-0.124253	0.913614
	C3545	C	0.615053	-0.124590	0.893383
	C3546	C	0.620068	-0.213334	0.883688
	C3547	C	0.629888	-0.213363	0.865153
	C3548	C	0.635027	-0.124487	0.855954
	C3549	C	0.630034	-0.035667	0.865712
	C3550	C	0.620207	-0.035810	0.884259
	C3551	C	0.645575	-0.124837	0.835822
	H3552	H	0.633629	-0.282250	0.857729
	H3553	H	0.616216	-0.281806	0.890766
	H3554	H	0.640804	-0.216384	0.995953
	H3555	H	0.620140	-0.215894	0.984603
	H3556	H	0.587597	-0.374530	0.910014
	H3557	H	0.588552	-0.124501	0.989910
	H3558	H	0.503853	-0.124115	0.981097
	H3559	H	0.662422	-0.374840	0.839560
	H3560	H	0.557355	-0.283559	0.912581
	H3561	H	0.536702	-0.282524	0.901849
	H3562	H	0.535685	-0.214328	0.988500
	H3563	H	0.556869	-0.214671	0.983987
	H3564	H	0.536767	0.035965	0.901963
	H3565	H	0.557481	0.035077	0.912700
	H3566	H	0.556823	-0.534049	0.984028
	H3567	H	0.535726	-0.533922	0.988432
	H3568	H	0.619918	-0.534425	0.985483
	H3569	H	0.640585	-0.535471	0.996831
	H3570	H	0.616470	0.032797	0.891713
	H3571	H	0.633903	0.033154	0.858802
	Al3572	Al	0.588635	0.000615	0.949965
	Al3573	Al	0.588665	0.250893	0.950106
	Al3574	Al	0.505321	0.251733	0.866608
	Al3575	Al	0.505326	0.002471	0.866878
	O3576	O	0.601208	0.041155	0.974031
	O3577	O	0.588241	0.125812	0.930693
	O3578	O	0.588748	0.375644	0.969247
	O3579	O	0.659259	0.039574	1.009635
	O3580	O	0.576132	0.041001	0.976332
	O3581	O	0.516287	0.042121	0.996236
	O3582	O	0.576204	0.209559	0.976775
	O3583	O	0.575947	0.291108	0.925941
	O3584	O	0.517880	0.292869	0.890689
	O3585	O	0.601251	0.209730	0.973768
	O3586	O	0.600269	0.291761	0.921277
	O3587	O	0.649644	0.290532	0.827971
	O3588	O	0.516313	0.210390	0.996391
	O3589	O	0.576067	0.459594	0.925402
	O3590	O	0.517897	0.461052	0.890611
	O3591	O	0.649747	0.458502	0.828261
	O3592	O	0.600341	0.459703	0.921457
	O3593	O	0.659392	0.207946	1.009113
	O3594	O	0.503723	0.376407	1.001901
	O3595	O	0.661836	0.124937	0.818826
	C3596	C	0.636239	0.214281	0.993327
	C3597	C	0.642114	0.124258	0.997167
	C3598	C	0.636100	0.034563	0.994298
	C3599	C	0.624451	0.034978	0.988100
	C3600	C	0.618569	0.125044	0.984663
	C3601	C	0.624598	0.214649	0.987131
	C3602	C	0.606137	0.125344	0.976902
	C3603	C	0.654483	0.123770	1.005830
	C3604	C	0.571121	0.125372	0.978552
	C3605	C	0.558323	0.125654	0.983644
	C3606	C	0.552209	0.215418	0.985090
	C3607	C	0.540268	0.215576	0.987620
	C3608	C	0.534135	0.125922	0.988777
	C3609	C	0.540252	0.036220	0.987314
	C3610	C	0.552193	0.035958	0.984765
	C3611	C	0.521322	0.126156	0.994076
	C3612	C	0.571180	0.375751	0.922270
	C3613	C	0.558798	0.375987	0.913607
	C3614	C	0.552891	0.465785	0.910205
	C3615	C	0.541247	0.465821	0.904023
	C3616	C	0.535256	0.376381	0.901163
	C3617	C	0.541192	0.286617	0.904103
	C3618	C	0.552843	0.286480	0.910302
	C3619	C	0.522774	0.377010	0.893630
	C3620	C	0.604492	0.375793	0.913671
	C3621	C	0.615021	0.375734	0.893393
	C3622	C	0.619937	0.286903	0.883605
	C3623	C	0.629762	0.286416	0.865044
	C3624	C	0.634944	0.374871	0.855976
	C3625	C	0.630028	0.463734	0.865835
	C3626	C	0.620198	0.464312	0.884403
	C3627	C	0.645503	0.374672	0.835848
	H3628	H	0.633444	0.217359	0.857537
	H3629	H	0.616086	0.218100	0.890519
	H3630	H	0.640822	0.283621	0.995437
	H3631	H	0.620174	0.284513	0.984232
	H3632	H	0.587380	0.126708	0.909921
	H3633	H	0.588409	0.375516	0.989962
	H3634	H	0.503846	0.376389	0.981207
	H3635	H	0.662478	0.124286	0.839463
	H3636	H	0.557376	0.216869	0.912809
	H3637	H	0.536674	0.217120	0.901736
	H3638	H	0.535698	0.285575	0.988933
	H3639	H	0.556807	0.285197	0.984392
	H3640	H	0.536727	0.535212	0.901600
	H3641	H	0.557378	0.535347	0.912644
	H3642	H	0.556778	-0.034241	0.983793
	H3643	H	0.535641	-0.033816	0.988335
	H3644	H	0.619879	-0.034228	0.985907
	H3645	H	0.640536	-0.035242	0.997183
	H3646	H	0.616522	0.533163	0.892066
	H3647	H	0.633961	0.532436	0.859046
	Al3648	Al	0.755235	-0.502997	0.117354
	Al3649	Al	0.755277	-0.252247	0.117356
	Al3650	Al	0.671951	-0.251286	0.034027
	Al3651	Al	0.671916	-0.500789	0.033949
	O3652	O	0.767844	-0.461678	0.141068
	O3653	O	0.754908	-0.377751	0.097940
	O3654	O	0.755403	-0.127482	0.136564
	O3655	O	0.826040	-0.462088	0.175901
	O3656	O	0.742746	-0.461568	0.143767
	O3657	O	0.682919	-0.460527	0.163378
	O3658	O	0.742810	-0.292971	0.143778
	O3659	O	0.742668	-0.211359	0.092892
	O3660	O	0.684464	-0.210022	0.058038
	O3661	O	0.767905	-0.293485	0.141082
	O3662	O	0.766940	-0.212055	0.088526
	O3663	O	0.816337	-0.212133	-0.004816
	O3664	O	0.682945	-0.292315	0.163664
	O3665	O	0.742635	-0.043257	0.092728
	O3666	O	0.684596	-0.041641	0.057553
	O3667	O	0.816354	-0.044165	-0.004736
	O3668	O	0.766924	-0.043679	0.088522
	O3669	O	0.826036	-0.293405	0.175920
	O3670	O	0.670342	-0.126698	0.169048
	O3671	O	0.828331	-0.377863	-0.014162
	C3672	C	0.802863	-0.288450	0.160424
	C3673	C	0.808823	-0.378060	0.163698
	C3674	C	0.802873	-0.467802	0.160454
	C3675	C	0.791229	-0.467514	0.154326
	C3676	C	0.785256	-0.377816	0.151407
	C3677	C	0.791207	-0.288142	0.154342
	C3678	C	0.772774	-0.377807	0.143937
	C3679	C	0.821217	-0.377814	0.172400
	C3680	C	0.737775	-0.377168	0.145884
	C3681	C	0.724949	-0.376787	0.150647
	C3682	C	0.718818	-0.287076	0.152164
	C3683	C	0.706897	-0.286992	0.154670
	C3684	C	0.700767	-0.376796	0.155883
	C3685	C	0.706886	-0.466706	0.154091
	C3686	C	0.718814	-0.466740	0.151618
	C3687	C	0.687967	-0.376461	0.161189
	C3688	C	0.737818	-0.127475	0.089371
	C3689	C	0.725454	-0.127355	0.080512
	C3690	C	0.719563	-0.037384	0.077003
	C3691	C	0.707917	-0.037282	0.070834
	C3692	C	0.701883	-0.126704	0.068263
	C3693	C	0.707799	-0.216567	0.071340
	C3694	C	0.719451	-0.216841	0.077436
	C3695	C	0.689434	-0.126043	0.060654
	C3696	C	0.771124	-0.127781	0.080807
	C3697	C	0.781674	-0.127532	0.060548
	C3698	C	0.786745	-0.216712	0.051217
	C3699	C	0.796576	-0.216984	0.032665
	C3700	C	0.801587	-0.128019	0.023152
	C3701	C	0.796547	-0.038743	0.032591
	C3702	C	0.786720	-0.038445	0.051108
	C3703	C	0.812168	-0.128199	0.002948
	H3704	H	0.800390	-0.286168	0.025508
	H3705	H	0.783014	-0.285697	0.058648
	H3706	H	0.807377	-0.218890	0.162818
	H3707	H	0.786698	-0.218354	0.151876
	H3708	H	0.754533	-0.377315	0.077238
	H3709	H	0.755051	-0.127319	0.157436
	H3710	H	0.670587	-0.126628	0.148231
	H3711	H	0.828905	-0.377698	0.006618
	H3712	H	0.723925	-0.286771	0.079962
	H3713	H	0.703274	-0.285876	0.068963
	H3714	H	0.702294	-0.217016	0.155866
	H3715	H	0.723454	-0.217203	0.151382
	H3716	H	0.703424	0.032277	0.068144
	H3717	H	0.724119	0.032138	0.079286
	H3718	H	0.723409	-0.536607	0.150413
	H3719	H	0.702231	-0.536772	0.154730
	H3720	H	0.786688	-0.537297	0.151789
	H3721	H	0.807383	-0.537524	0.162818
	H3722	H	0.782991	0.030724	0.058403
	H3723	H	0.800355	0.030562	0.025312
	Al3724	Al	0.755281	-0.002940	0.117177
	Al3725	Al	0.755284	0.247894	0.117321
	Al3726	Al	0.671952	0.248599	0.033809
	Al3727	Al	0.671919	-0.000657	0.033865
	O3728	O	0.767895	0.038570	0.141037
	O3729	O	0.754860	0.122715	0.097943
	O3730	O	0.755303	0.372503	0.136673
	O3731	O	0.826072	0.037926	0.176031
	O3732	O	0.742806	0.038115	0.143923
	O3733	O	0.682888	0.039409	0.163418
	O3734	O	0.742763	0.206295	0.143946
	O3735	O	0.742635	0.288037	0.092988
	O3736	O	0.684555	0.289369	0.057575
	O3737	O	0.767950	0.207220	0.140895
	O3738	O	0.766855	0.288447	0.088349
	O3739	O	0.816312	0.287940	-0.004850
	O3740	O	0.682957	0.207602	0.163460
	O3741	O	0.742695	0.456536	0.092851
	O3742	O	0.684549	0.457842	0.057627
	O3743	O	0.816308	0.456225	-0.004679
	O3744	O	0.766954	0.456441	0.088649
	O3745	O	0.826035	0.206540	0.176005
	O3746	O	0.670277	0.373970	0.168947
	O3747	O	0.828368	0.122033	-0.014209
	C3748	C	0.802904	0.212090	0.160677
	C3749	C	0.808847	0.122216	0.163845
	C3750	C	0.802901	0.032435	0.160537
	C3751	C	0.791233	0.032695	0.154428
	C3752	C	0.785262	0.122502	0.151588
	C3753	C	0.791248	0.212149	0.154548
	C3754	C	0.772806	0.122813	0.143953
	C3755	C	0.821218	0.122135	0.172534
	C3756	C	0.737747	0.122183	0.146033
	C3757	C	0.724951	0.122253	0.150992
	C3758	C	0.718840	0.212225	0.152247
	C3759	C	0.706913	0.212416	0.154733
	C3760	C	0.700750	0.122688	0.156056
	C3761	C	0.706850	0.032637	0.154507
	C3762	C	0.718775	0.032604	0.152068
	C3763	C	0.687959	0.123349	0.161274
	C3764	C	0.737836	0.372304	0.089378
	C3765	C	0.725481	0.372620	0.080603
	C3766	C	0.719534	0.462466	0.077445
	C3767	C	0.707886	0.462825	0.071215
	C3768	C	0.701919	0.373288	0.068030
	C3769	C	0.707849	0.283393	0.071140
	C3770	C	0.719516	0.282992	0.077362
	C3771	C	0.689458	0.373707	0.060430
	C3772	C	0.771077	0.372477	0.080768
	C3773	C	0.781661	0.372084	0.060670
	C3774	C	0.786681	0.283081	0.051047
	C3775	C	0.796505	0.283156	0.032528
	C3776	C	0.801585	0.371958	0.023202
	C3777	C	0.796576	0.461071	0.032873
	C3778	C	0.786747	0.461035	0.051386
	C3779	C	0.812133	0.372171	0.002947
	H3780	H	0.800269	0.214077	0.025115
	H3781	H	0.782863	0.214080	0.058089
	H3782	H	0.807395	0.281940	0.163297
	H3783	H	0.786735	0.281795	0.152063
	H3784	H	0.754034	0.123094	0.077285
	H3785	H	0.755261	0.372163	0.157388
	H3786	H	0.670548	0.374251	0.148320
	H3787	H	0.828978	0.122191	0.006485
	H3788	H	0.723999	0.213363	0.079955
	H3789	H	0.703290	0.214185	0.068691
	H3790	H	0.702300	0.282254	0.155895
	H3791	H	0.723441	0.282075	0.151466
	H3792	H	0.703396	0.532399	0.068877
	H3793	H	0.724051	0.532043	0.080011
	H3794	H	0.723407	-0.037445	0.151100
	H3795	H	0.702258	-0.037182	0.155552
	H3796	H	0.786703	-0.037227	0.151918
	H3797	H	0.807396	-0.037260	0.163086
	H3798	H	0.782952	0.529949	0.058756
	H3799	H	0.800371	0.529886	0.025647
	Al3800	Al	0.753459	-0.502482	0.271650
	Al3801	Al	0.753455	-0.252599	0.271559
	Al3802	Al	0.670080	-0.251653	0.188576
	Al3803	Al	0.670095	-0.501256	0.188489
	O3804	O	0.765765	-0.461187	0.297177
	O3805	O	0.753722	-0.377789	0.252175
	O3806	O	0.753125	-0.127493	0.290943
	O3807	O	0.824447	-0.462037	0.329752
	O3808	O	0.740533	-0.461551	0.296325
	O3809	O	0.680652	-0.459937	0.315465
	O3810	O	0.740560	-0.293254	0.296475
	O3811	O	0.741066	-0.212359	0.246087
	O3812	O	0.682372	-0.210949	0.214184
	O3813	O	0.765718	-0.292868	0.297199
	O3814	O	0.766304	-0.211946	0.246599
	O3815	O	0.826209	-0.212030	0.226774
	O3816	O	0.680691	-0.291600	0.315934
	O3817	O	0.741209	-0.043976	0.245761
	O3818	O	0.682417	-0.042492	0.214011
	O3819	O	0.826207	-0.043490	0.227087
	O3820	O	0.766353	-0.043696	0.246601
	O3821	O	0.824458	-0.293823	0.329667
	O3822	O	0.668050	-0.126313	0.321118
	O3823	O	0.838685	-0.377838	0.219665
	C3824	C	0.801019	-0.287593	0.315965
	C3825	C	0.807024	-0.377661	0.318720
	C3826	C	0.800969	-0.467387	0.315886
	C3827	C	0.789223	-0.467176	0.310712
	C3828	C	0.783199	-0.377166	0.308086
	C3829	C	0.789260	-0.287567	0.310841
	C3830	C	0.770671	-0.377123	0.300382
	C3831	C	0.819549	-0.377945	0.326529
	C3832	C	0.735515	-0.377476	0.298600
	C3833	C	0.722712	-0.376942	0.303686
	C3834	C	0.716606	-0.286862	0.305049
	C3835	C	0.704682	-0.286583	0.307437
	C3836	C	0.698515	-0.376193	0.308700
	C3837	C	0.704602	-0.466381	0.307178
	C3838	C	0.716532	-0.466706	0.304790
	C3839	C	0.685706	-0.375980	0.313620
	C3840	C	0.736224	-0.127818	0.242723
	C3841	C	0.723677	-0.127567	0.235119
	C3842	C	0.717706	-0.037416	0.232146
	C3843	C	0.705939	-0.037152	0.227001
	C3844	C	0.699852	-0.126880	0.224641
	C3845	C	0.705821	-0.216973	0.227605
	C3846	C	0.717583	-0.217192	0.232768
	C3847	C	0.687310	-0.126892	0.217222
	C3848	C	0.771378	-0.127792	0.244481
	C3849	C	0.784182	-0.127992	0.239131
	C3850	C	0.790305	-0.217648	0.237818
	C3851	C	0.802251	-0.217639	0.235340
	C3852	C	0.808355	-0.127782	0.234041
	C3853	C	0.802237	-0.038152	0.235268
	C3854	C	0.790313	-0.038356	0.237709
	C3855	C	0.821165	-0.127791	0.229043
	H3856	H	0.806853	-0.287555	0.234308
	H3857	H	0.785698	-0.287705	0.238821
	H3858	H	0.805562	-0.217431	0.317937
	H3859	H	0.784705	-0.217485	0.308940
	H3860	H	0.753748	-0.378049	0.231309
	H3861	H	0.752509	-0.127419	0.311658
	H3862	H	0.668543	-0.126405	0.300268
	H3863	H	0.838515	-0.377333	0.240281
	H3864	H	0.722064	-0.287439	0.234959
	H3865	H	0.701275	-0.287150	0.225988
	H3866	H	0.700082	-0.216685	0.308450
	H3867	H	0.721210	-0.217104	0.304270
	H3868	H	0.701431	0.032985	0.224890
	H3869	H	0.722260	0.032429	0.233758
	H3870	H	0.721145	-0.536744	0.303815
	H3871	H	0.699981	-0.536344	0.308015
	H3872	H	0.784704	-0.537296	0.308638
	H3873	H	0.805538	-0.537372	0.317847
	H3874	H	0.785710	0.031807	0.238592
	H3875	H	0.806807	0.031898	0.234208
	Al3876	Al	0.753517	-0.002891	0.271549
	Al3877	Al	0.753433	0.247381	0.271681
	Al3878	Al	0.670071	0.248895	0.188212
	Al3879	Al	0.670110	-0.001605	0.188517
	O3880	O	0.765787	0.038023	0.297134
	O3881	O	0.753753	0.122330	0.252214
	O3882	O	0.753247	0.372637	0.291114
	O3883	O	0.824474	0.037671	0.329594
	O3884	O	0.740560	0.037865	0.296413
	O3885	O	0.680638	0.039777	0.315596
	O3886	O	0.740615	0.206176	0.296739
	O3887	O	0.741111	0.288129	0.246257
	O3888	O	0.682346	0.289654	0.214048
	O3889	O	0.765750	0.206386	0.297282
	O3890	O	0.766302	0.288319	0.246747
	O3891	O	0.826097	0.288068	0.226765
	O3892	O	0.680723	0.207962	0.315995
	O3893	O	0.741206	0.456604	0.245874
	O3894	O	0.682479	0.457878	0.213686
	O3895	O	0.826119	0.456763	0.226942
	O3896	O	0.766287	0.456696	0.246809
	O3897	O	0.824461	0.205995	0.329794
	O3898	O	0.668073	0.373963	0.321131
	O3899	O	0.838784	0.122004	0.219724
	C3900	C	0.801053	0.211914	0.315588
	C3901	C	0.807083	0.121906	0.318337
	C3902	C	0.801049	0.032032	0.315647
	C3903	C	0.789296	0.032030	0.310530
	C3904	C	0.783266	0.121992	0.307681
	C3905	C	0.789303	0.211872	0.310462
	C3906	C	0.770684	0.122280	0.300222
	C3907	C	0.819589	0.121894	0.326337
	C3908	C	0.735541	0.122230	0.298569
	C3909	C	0.722756	0.122554	0.303643
	C3910	C	0.716679	0.212613	0.305326
	C3911	C	0.704727	0.212982	0.307775
	C3912	C	0.698544	0.123414	0.308686
	C3913	C	0.704630	0.033547	0.307095
	C3914	C	0.716566	0.032993	0.304578
	C3915	C	0.685755	0.123729	0.313740
	C3916	C	0.736247	0.372469	0.242949
	C3917	C	0.723725	0.372564	0.235187
	C3918	C	0.717739	0.462483	0.232080
	C3919	C	0.705992	0.462886	0.226936
	C3920	C	0.699870	0.373276	0.224761
	C3921	C	0.705860	0.283257	0.227725
	C3922	C	0.717612	0.282921	0.232832
	C3923	C	0.687328	0.373585	0.217023
	C3924	C	0.771315	0.372517	0.244658
	C3925	C	0.784134	0.372580	0.239238
	C3926	C	0.790251	0.282957	0.237811
	C3927	C	0.802169	0.282977	0.235230
	C3928	C	0.808271	0.372774	0.233977
	C3929	C	0.802150	0.462603	0.235092
	C3930	C	0.790227	0.462508	0.237702
	C3931	C	0.821088	0.372506	0.228980
	H3932	H	0.806799	0.213134	0.234129
	H3933	H	0.785659	0.212848	0.238694
	H3934	H	0.805596	0.281822	0.317590
	H3935	H	0.784752	0.282133	0.308650
	H3936	H	0.754020	0.122998	0.231334
	H3937	H	0.753128	0.371792	0.311846
	H3938	H	0.668362	0.373970	0.300335
	H3939	H	0.838632	0.122745	0.240388
	H3940	H	0.722096	0.212805	0.235122
	H3941	H	0.701229	0.213610	0.226026
	H3942	H	0.700177	0.283384	0.309214
	H3943	H	0.721325	0.282450	0.304776
	H3944	H	0.701523	0.533082	0.224558
	H3945	H	0.722332	0.532349	0.233749
	H3946	H	0.721104	-0.037336	0.303520
	H3947	H	0.699997	-0.036494	0.308022
	H3948	H	0.784744	-0.037973	0.308771
	H3949	H	0.805552	-0.038064	0.317769
	H3950	H	0.785588	0.532172	0.238529
	H3951	H	0.806738	0.532658	0.233961
	Al3952	Al	0.751125	-0.502592	0.423944
	Al3953	Al	0.751141	-0.252658	0.423861
	Al3954	Al	0.667785	-0.250940	0.340642
	Al3955	Al	0.667816	-0.501032	0.340571
	O3956	O	0.763424	-0.462272	0.449457
	O3957	O	0.751308	-0.377669	0.404382
	O3958	O	0.750879	-0.127901	0.443386
	O3959	O	0.822166	-0.462443	0.481413
	O3960	O	0.738271	-0.461738	0.448917
	O3961	O	0.678394	-0.460314	0.468048
	O3962	O	0.738305	-0.293378	0.449036
	O3963	O	0.738782	-0.211610	0.398565
	O3964	O	0.679999	-0.209838	0.366577
	O3965	O	0.763424	-0.294008	0.449438
	O3966	O	0.763991	-0.211363	0.398840
	O3967	O	0.823900	-0.212414	0.380286
	O3968	O	0.678457	-0.291961	0.468300
	O3969	O	0.738868	-0.043477	0.398439
	O3970	O	0.680138	-0.041473	0.366049
	O3971	O	0.823953	-0.044283	0.380042
	O3972	O	0.764053	-0.042866	0.399396
	O3973	O	0.822167	-0.294048	0.481513
	O3974	O	0.665713	-0.125628	0.473507
	O3975	O	0.836557	-0.378252	0.374686
	C3976	C	0.798680	-0.288114	0.468336
	C3977	C	0.804718	-0.378138	0.470833
	C3978	C	0.798667	-0.468005	0.468194
	C3979	C	0.786915	-0.467782	0.463056
	C3980	C	0.780850	-0.377806	0.460476
	C3981	C	0.786911	-0.287913	0.463208
	C3982	C	0.768344	-0.378122	0.452654
	C3983	C	0.817253	-0.378093	0.478371
	C3984	C	0.733253	-0.377435	0.451091
	C3985	C	0.720450	-0.377206	0.455945
	C3986	C	0.714352	-0.287088	0.457429
	C3987	C	0.702417	-0.286916	0.459857
	C3988	C	0.696270	-0.376614	0.460885
	C3989	C	0.702363	-0.466828	0.459445
	C3990	C	0.714300	-0.466975	0.457027
	C3991	C	0.683464	-0.376315	0.466099
	C3992	C	0.733904	-0.127403	0.395320
	C3993	C	0.721380	-0.127019	0.387802
	C3994	C	0.715427	-0.036924	0.384566
	C3995	C	0.703671	-0.036610	0.379413
	C3996	C	0.697537	-0.126100	0.377156
	C3997	C	0.703507	-0.216221	0.380235
	C3998	C	0.715253	-0.216669	0.385396
	C3999	C	0.684996	-0.125669	0.369518
	C4000	C	0.769071	-0.127206	0.397010
	C4001	C	0.781883	-0.127536	0.392228
	C4002	C	0.787989	-0.217611	0.390833
	C4003	C	0.799927	-0.217957	0.388479
	C4004	C	0.806068	-0.128034	0.387258
	C4005	C	0.799958	-0.038022	0.388594
	C4006	C	0.788007	-0.037686	0.390980
	C4007	C	0.818883	-0.128259	0.382440
	H4008	H	0.804512	-0.288140	0.387618
	H4009	H	0.783349	-0.287392	0.391420
	H4010	H	0.803225	-0.218131	0.470333
	H4011	H	0.782393	-0.217626	0.461360
	H4012	H	0.751615	-0.377340	0.383486
	H4013	H	0.750260	-0.128226	0.464143
	H4014	H	0.665887	-0.125627	0.452755
	H4015	H	0.836216	-0.377847	0.395459
	H4016	H	0.719736	-0.286783	0.387622
	H4017	H	0.698928	-0.285966	0.378580
	H4018	H	0.697804	-0.216890	0.460790
	H4019	H	0.718947	-0.216843	0.456487
	H4020	H	0.699188	0.033540	0.377160
	H4021	H	0.720016	0.033024	0.386123
	H4022	H	0.718906	-0.537211	0.455805
	H4023	H	0.697776	-0.536998	0.460167
	H4024	H	0.782368	-0.537832	0.461118
	H4025	H	0.803194	-0.538046	0.470157
	H4026	H	0.783414	0.032397	0.391790
	H4027	H	0.804587	0.031941	0.387830
	Al4028	Al	0.751090	-0.002652	0.424106
	Al4029	Al	0.751125	0.247407	0.424158
	Al4030	Al	0.667794	0.248489	0.340663
	Al4031	Al	0.667784	-0.001082	0.340540
	O4032	O	0.763364	0.038217	0.449784
	O4033	O	0.751369	0.122475	0.404693
	O4034	O	0.750919	0.372674	0.443519
	O4035	O	0.822215	0.037773	0.481052
	O4036	O	0.738176	0.037940	0.448854
	O4037	O	0.678306	0.040664	0.467830
	O4038	O	0.738301	0.206223	0.449226
	O4039	O	0.738820	0.288385	0.398488
	O4040	O	0.680014	0.290007	0.366337
	O4041	O	0.763369	0.206479	0.449952
	O4042	O	0.763991	0.288261	0.399148
	O4043	O	0.823906	0.287868	0.380176
	O4044	O	0.678432	0.208991	0.468293
	O4045	O	0.738816	0.456776	0.398402
	O4046	O	0.680157	0.458535	0.366176
	O4047	O	0.823867	0.455995	0.379969
	O4048	O	0.764037	0.456535	0.399050
	O4049	O	0.822175	0.206078	0.481353
	O4050	O	0.665717	0.373896	0.473503
	O4051	O	0.836558	0.121132	0.374644
	C4052	C	0.798657	0.211892	0.468114
	C4053	C	0.804719	0.121902	0.470614
	C4054	C	0.798674	0.032063	0.468062
	C4055	C	0.786909	0.032365	0.463092
	C4056	C	0.780837	0.122246	0.460624
	C4057	C	0.786895	0.212158	0.463203
	C4058	C	0.768290	0.122309	0.452956
	C4059	C	0.817262	0.122024	0.478237
	C4060	C	0.733226	0.122303	0.451211
	C4061	C	0.720398	0.122934	0.455977
	C4062	C	0.714341	0.213190	0.457632
	C4063	C	0.702402	0.213805	0.459980
	C4064	C	0.696207	0.124080	0.460861
	C4065	C	0.702279	0.033871	0.459405
	C4066	C	0.714210	0.033195	0.457062
	C4067	C	0.683382	0.124661	0.465900
	C4068	C	0.733903	0.372469	0.395292
	C4069	C	0.721407	0.372510	0.387373
	C4070	C	0.715442	0.462678	0.384307
	C4071	C	0.703662	0.463194	0.379212
	C4072	C	0.697543	0.373504	0.376983
	C4073	C	0.703514	0.283393	0.380011
	C4074	C	0.715298	0.282819	0.385073
	C4075	C	0.685025	0.373939	0.369278
	C4076	C	0.769063	0.372256	0.397180
	C4077	C	0.781862	0.372314	0.392111
	C4078	C	0.788008	0.282529	0.391016
	C4079	C	0.799927	0.282488	0.388654
	C4080	C	0.806070	0.372270	0.387292
	C4081	C	0.799945	0.462374	0.388434
	C4082	C	0.788016	0.462199	0.390766
	C4083	C	0.818853	0.371907	0.382129
	H4084	H	0.804527	0.212185	0.387653
	H4085	H	0.783434	0.212544	0.392161
	H4086	H	0.803192	0.281986	0.470016
	H4087	H	0.782388	0.282434	0.461155
	H4088	H	0.751895	0.122739	0.383974
	H4089	H	0.750484	0.373137	0.464341
	H4090	H	0.665956	0.373737	0.452510
	H4091	H	0.836258	0.121367	0.395310
	H4092	H	0.719735	0.212574	0.387448
	H4093	H	0.698947	0.213506	0.378267
	H4094	H	0.697879	0.283966	0.461056
	H4095	H	0.719001	0.282891	0.456920
	H4096	H	0.699183	0.533474	0.376902
	H4097	H	0.720008	0.532507	0.386109
	H4098	H	0.718770	-0.037081	0.455918
	H4099	H	0.697630	-0.035874	0.459997
	H4100	H	0.782347	-0.037779	0.460951
	H4101	H	0.803199	-0.038145	0.469947
	H4102	H	0.783391	0.532283	0.391635
	H4103	H	0.804574	0.532264	0.387304
	Al4104	Al	0.748876	-0.502196	0.575780
	Al4105	Al	0.748862	-0.252173	0.576060
	Al4106	Al	0.665500	-0.251071	0.492813
	Al4107	Al	0.665558	-0.500868	0.492970
	O4108	O	0.761092	-0.461377	0.601590
	O4109	O	0.749104	-0.377103	0.556412
	O4110	O	0.748617	-0.126927	0.595501
	O4111	O	0.819892	-0.462533	0.633746
	O4112	O	0.735945	-0.461663	0.600604
	O4113	O	0.676123	-0.459765	0.619828
	O4114	O	0.736070	-0.293403	0.601129
	O4115	O	0.736456	-0.211784	0.550667
	O4116	O	0.677784	-0.209914	0.518582
	O4117	O	0.761223	-0.292931	0.601446
	O4118	O	0.761748	-0.211340	0.551410
	O4119	O	0.821627	-0.212003	0.532068
	O4120	O	0.676130	-0.291503	0.619776
	O4121	O	0.736566	-0.043429	0.550282
	O4122	O	0.677803	-0.041864	0.518465
	O4123	O	0.821520	-0.043568	0.531735
	O4124	O	0.761728	-0.043324	0.551152
	O4125	O	0.819883	-0.293968	0.633513
	O4126	O	0.663519	-0.125113	0.625189
	O4127	O	0.834188	-0.377992	0.526506
	C4128	C	0.796439	-0.288363	0.620053
	C4129	C	0.802460	-0.378570	0.622699
	C4130	C	0.796383	-0.468437	0.620307
	C4131	C	0.784615	-0.468257	0.615135
	C4132	C	0.778615	-0.377949	0.612206
	C4133	C	0.784677	-0.288079	0.614944
	C4134	C	0.766086	-0.377536	0.604512
	C4135	C	0.814975	-0.378255	0.630528
	C4136	C	0.730960	-0.377360	0.602832
	C4137	C	0.718150	-0.376856	0.607725
	C4138	C	0.712066	-0.286759	0.609293
	C4139	C	0.700131	-0.286221	0.611670
	C4140	C	0.693953	-0.375844	0.612751
	C4141	C	0.700024	-0.466087	0.611276
	C4142	C	0.711967	-0.466709	0.608890
	C4143	C	0.681161	-0.375638	0.617641
	C4144	C	0.731617	-0.127333	0.547392
	C4145	C	0.719095	-0.126816	0.539680
	C4146	C	0.713105	-0.036689	0.536833
	C4147	C	0.701340	-0.036348	0.531695
	C4148	C	0.695267	-0.126162	0.529182
	C4149	C	0.701277	-0.216269	0.532086
	C4150	C	0.713034	-0.216623	0.537215
	C4151	C	0.682706	-0.125886	0.521620
	C4152	C	0.766769	-0.127347	0.549040
	C4153	C	0.779567	-0.127541	0.544115
	C4154	C	0.785680	-0.217631	0.542695
	C4155	C	0.797608	-0.217831	0.540288
	C4156	C	0.803747	-0.128027	0.539053
	C4157	C	0.797646	-0.038002	0.540361
	C4158	C	0.785706	-0.037645	0.542750
	C4159	C	0.816547	-0.127956	0.534056
	H4160	H	0.802202	-0.288098	0.539494
	H4161	H	0.781076	-0.287486	0.543627
	H4162	H	0.800994	-0.218473	0.622012
	H4163	H	0.780168	-0.217663	0.612912
	H4164	H	0.749500	-0.377235	0.535651
	H4165	H	0.748469	-0.126911	0.616371
	H4166	H	0.663797	-0.124515	0.604312
	H4167	H	0.833894	-0.378217	0.547361
	H4168	H	0.717527	-0.286921	0.539384
	H4169	H	0.696691	-0.286009	0.530416
	H4170	H	0.695583	-0.215958	0.612812
	H4171	H	0.716731	-0.217061	0.608671
	H4172	H	0.696823	0.033994	0.529648
	H4173	H	0.717658	0.033072	0.538633
	H4174	H	0.716531	-0.536992	0.607889
	H4175	H	0.695351	-0.535982	0.612086
	H4176	H	0.780050	-0.538233	0.613232
	H4177	H	0.800907	-0.538562	0.622464
	H4178	H	0.781106	0.032376	0.543838
	H4179	H	0.802283	0.032011	0.539696
	Al4180	Al	0.748834	-0.002094	0.575962
	Al4181	Al	0.748894	0.247758	0.575837
	Al4182	Al	0.665486	0.249449	0.493041
	Al4183	Al	0.665523	-0.000792	0.492975
	O4184	O	0.761125	0.038291	0.601810
	O4185	O	0.749202	0.122787	0.556480
	O4186	O	0.748595	0.372623	0.595278
	O4187	O	0.819888	0.037508	0.633560
	O4188	O	0.735947	0.038865	0.600593
	O4189	O	0.676041	0.040419	0.619714
	O4190	O	0.736004	0.207278	0.600735
	O4191	O	0.736582	0.288210	0.550091
	O4192	O	0.677738	0.290088	0.518820
	O4193	O	0.761135	0.206860	0.601528
	O4194	O	0.761761	0.288572	0.550978
	O4195	O	0.821660	0.287483	0.531873
	O4196	O	0.676134	0.208912	0.619956
	O4197	O	0.736635	0.456546	0.550116
	O4198	O	0.677810	0.458254	0.518731
	O4199	O	0.821691	0.455834	0.532225
	O4200	O	0.761783	0.456934	0.550975
	O4201	O	0.819921	0.206006	0.633552
	O4202	O	0.663462	0.374967	0.625243
	O4203	O	0.834249	0.121838	0.526349
	C4204	C	0.796423	0.212022	0.620025
	C4205	C	0.802430	0.121967	0.622782
	C4206	C	0.796371	0.031846	0.620208
	C4207	C	0.784603	0.031996	0.615157
	C4208	C	0.778590	0.122233	0.612389
	C4209	C	0.784657	0.212145	0.615013
	C4210	C	0.766022	0.122567	0.604801
	C4211	C	0.814982	0.121951	0.630305
	C4212	C	0.730930	0.123211	0.602737
	C4213	C	0.718106	0.123284	0.607927
	C4214	C	0.712007	0.213330	0.609324
	C4215	C	0.700063	0.213688	0.611704
	C4216	C	0.693935	0.123929	0.612795
	C4217	C	0.700024	0.033821	0.611340
	C4218	C	0.711963	0.033484	0.608945
	C4219	C	0.681128	0.124371	0.617711
	C4220	C	0.731707	0.372511	0.547004
	C4221	C	0.719141	0.373037	0.539448
	C4222	C	0.713106	0.463086	0.537082
	C4223	C	0.701324	0.463283	0.532194
	C4224	C	0.695257	0.373393	0.529393
	C4225	C	0.701288	0.283313	0.531841
	C4226	C	0.713077	0.283210	0.536787
	C4227	C	0.682697	0.373981	0.521841
	C4228	C	0.766835	0.372757	0.548880
	C4229	C	0.779633	0.372288	0.544090
	C4230	C	0.785713	0.282224	0.542670
	C4231	C	0.797667	0.281822	0.540307
	C4232	C	0.803819	0.371681	0.539219
	C4233	C	0.797702	0.461742	0.540564
	C4234	C	0.785764	0.462102	0.542870
	C4235	C	0.816644	0.371620	0.534182
	H4236	H	0.802262	0.211620	0.539306
	H4237	H	0.781098	0.212168	0.543405
	H4238	H	0.801021	0.282114	0.621991
	H4239	H	0.780128	0.282354	0.613295
	H4240	H	0.749707	0.122228	0.535669
	H4241	H	0.747936	0.372865	0.616011
	H4242	H	0.663885	0.374761	0.604606
	H4243	H	0.833838	0.122098	0.547260
	H4244	H	0.717603	0.212823	0.538683
	H4245	H	0.696761	0.213224	0.529899
	H4246	H	0.695490	0.283865	0.612936
	H4247	H	0.716621	0.283273	0.608646
	H4248	H	0.696789	0.533564	0.530466
	H4249	H	0.717618	0.533088	0.539114
	H4250	H	0.716554	-0.036711	0.608018
	H4251	H	0.695413	-0.036135	0.612228
	H4252	H	0.780034	-0.037940	0.613539
	H4253	H	0.800875	-0.038135	0.622323
	H4254	H	0.781170	0.532337	0.543893
	H4255	H	0.802312	0.531703	0.539810
	Al4256	Al	0.746550	-0.502173	0.728043
	Al4257	Al	0.746547	-0.252138	0.727966
	Al4258	Al	0.663223	-0.250062	0.644501
	Al4259	Al	0.663263	-0.500007	0.644741
	O4260	O	0.758850	-0.461454	0.753638
	O4261	O	0.746861	-0.377419	0.708460
	O4262	O	0.746380	-0.127257	0.747450
	O4263	O	0.817503	-0.462728	0.786096
	O4264	O	0.733696	-0.461183	0.752804
	O4265	O	0.673853	-0.459364	0.772915
	O4266	O	0.733739	-0.293294	0.753116
	O4267	O	0.734215	-0.211411	0.702578
	O4268	O	0.675505	-0.209837	0.670275
	O4269	O	0.758919	-0.293152	0.753403
	O4270	O	0.759417	-0.211545	0.703042
	O4271	O	0.819310	-0.212321	0.684284
	O4272	O	0.673949	-0.291094	0.773143
	O4273	O	0.734257	-0.042981	0.702482
	O4274	O	0.675515	-0.041491	0.670439
	O4275	O	0.819308	-0.044023	0.684273
	O4276	O	0.759437	-0.043028	0.702981
	O4277	O	0.817601	-0.294471	0.785807
	O4278	O	0.661352	-0.125294	0.780160
	O4279	O	0.831890	-0.377932	0.678893
	C4280	C	0.794103	-0.287980	0.772084
	C4281	C	0.800096	-0.378136	0.775286
	C4282	C	0.794002	-0.467855	0.772854
	C4283	C	0.782270	-0.467616	0.767653
	C4284	C	0.776288	-0.377551	0.764529
	C4285	C	0.782362	-0.287710	0.766928
	C4286	C	0.763780	-0.377412	0.756704
	C4287	C	0.812636	-0.378437	0.782816
	C4288	C	0.728672	-0.377146	0.755262
	C4289	C	0.715910	-0.377011	0.760490
	C4290	C	0.709835	-0.286957	0.762056
	C4291	C	0.697908	-0.286407	0.764640
	C4292	C	0.691724	-0.375904	0.765789
	C4293	C	0.697798	-0.465968	0.764350
	C4294	C	0.709737	-0.466651	0.761793
	C4295	C	0.678939	-0.375462	0.770901
	C4296	C	0.729331	-0.127160	0.699320
	C4297	C	0.716816	-0.127104	0.691700
	C4298	C	0.710848	-0.036871	0.688880
	C4299	C	0.699085	-0.036344	0.683782
	C4300	C	0.692977	-0.126065	0.681275
	C4301	C	0.698961	-0.216214	0.684230
	C4302	C	0.710724	-0.216924	0.689310
	C4303	C	0.680434	-0.125686	0.673550
	C4304	C	0.764473	-0.127405	0.701007
	C4305	C	0.777287	-0.127647	0.696131
	C4306	C	0.783386	-0.217719	0.694836
	C4307	C	0.795321	-0.217890	0.692550
	C4308	C	0.801466	-0.128168	0.691378
	C4309	C	0.795373	-0.038123	0.692743
	C4310	C	0.783429	-0.037867	0.695061
	C4311	C	0.814286	-0.128211	0.686373
	H4312	H	0.799943	-0.288086	0.691575
	H4313	H	0.778779	-0.288016	0.695666
	H4314	H	0.798707	-0.218097	0.773674
	H4315	H	0.777863	-0.217828	0.764534
	H4316	H	0.747436	-0.377392	0.687710
	H4317	H	0.746232	-0.127266	0.768142
	H4318	H	0.661427	-0.125206	0.759410
	H4319	H	0.831339	-0.377521	0.699666
	H4320	H	0.715175	-0.287190	0.691651
	H4321	H	0.694380	-0.286238	0.682667
	H4322	H	0.693337	-0.216352	0.765594
	H4323	H	0.714460	-0.216993	0.761060
	H4324	H	0.694568	0.033799	0.681855
	H4325	H	0.715429	0.033012	0.690908
	H4326	H	0.714300	-0.536588	0.760546
	H4327	H	0.693155	-0.535732	0.765013
	H4328	H	0.777657	-0.537427	0.765822
	H4329	H	0.798539	-0.537911	0.774928
	H4330	H	0.778826	0.032205	0.696079
	H4331	H	0.799956	0.031870	0.691943
	Al4332	Al	0.746553	-0.002213	0.727974
	Al4333	Al	0.746548	0.247936	0.727911
	Al4334	Al	0.663196	0.250199	0.644772
	Al4335	Al	0.663244	-0.000187	0.644759
	O4336	O	0.758858	0.038786	0.753641
	O4337	O	0.746808	0.122937	0.708506
	O4338	O	0.746281	0.373015	0.747379
	O4339	O	0.817497	0.037798	0.786125
	O4340	O	0.733667	0.038902	0.752918
	O4341	O	0.673856	0.040961	0.772723
	O4342	O	0.733805	0.207123	0.753265
	O4343	O	0.734215	0.288905	0.702394
	O4344	O	0.675518	0.290824	0.670246
	O4345	O	0.758886	0.207147	0.753421
	O4346	O	0.759392	0.288783	0.702754
	O4347	O	0.819294	0.287790	0.684163
	O4348	O	0.673939	0.209567	0.773336
	O4349	O	0.734275	0.457421	0.702185
	O4350	O	0.675483	0.459261	0.670547
	O4351	O	0.819333	0.456161	0.684265
	O4352	O	0.759489	0.457058	0.703153
	O4353	O	0.817607	0.205930	0.785891
	O4354	O	0.661289	0.375056	0.780267
	O4355	O	0.831936	0.121954	0.678656
	C4356	C	0.794081	0.212202	0.772205
	C4357	C	0.800086	0.122301	0.775179
	C4358	C	0.794055	0.032564	0.772692
	C4359	C	0.782294	0.032443	0.767495
	C4360	C	0.776276	0.122390	0.764611
	C4361	C	0.782323	0.212201	0.767004
	C4362	C	0.763778	0.123007	0.756709
	C4363	C	0.812612	0.122047	0.782963
	C4364	C	0.728679	0.123465	0.755346
	C4365	C	0.715903	0.124094	0.760511
	C4366	C	0.709830	0.214099	0.762227
	C4367	C	0.697906	0.214430	0.764911
	C4368	C	0.691728	0.124790	0.765925
	C4369	C	0.697815	0.034804	0.764400
	C4370	C	0.709737	0.034485	0.761732
	C4371	C	0.678938	0.125257	0.770975
	C4372	C	0.729336	0.373231	0.699202
	C4373	C	0.716782	0.373578	0.691596
	C4374	C	0.710799	0.463750	0.688879
	C4375	C	0.699052	0.464208	0.683831
	C4376	C	0.692951	0.374548	0.681352
	C4377	C	0.698915	0.284305	0.684153
	C4378	C	0.710673	0.283996	0.689260
	C4379	C	0.680432	0.374947	0.673522
	C4380	C	0.764473	0.372739	0.700858
	C4381	C	0.777288	0.372623	0.696119
	C4382	C	0.783400	0.282522	0.694527
	C4383	C	0.795331	0.282315	0.692223
	C4384	C	0.801488	0.372273	0.691233
	C4385	C	0.795382	0.462392	0.692704
	C4386	C	0.783454	0.462618	0.695047
	C4387	C	0.814287	0.371940	0.686297
	H4388	H	0.799920	0.212169	0.691195
	H4389	H	0.778737	0.212511	0.695221
	H4390	H	0.798612	0.282242	0.774031
	H4391	H	0.777813	0.282426	0.764779
	H4392	H	0.747184	0.122365	0.687743
	H4393	H	0.746043	0.372784	0.768171
	H4394	H	0.661428	0.375374	0.759577
	H4395	H	0.831684	0.121713	0.699462
	H4396	H	0.715180	0.213845	0.691428
	H4397	H	0.694334	0.214390	0.682378
	H4398	H	0.693309	0.284529	0.765935
	H4399	H	0.714446	0.284043	0.761217
	H4400	H	0.694564	0.534335	0.681768
	H4401	H	0.715384	0.533641	0.690657
	H4402	H	0.714323	-0.035615	0.760372
	H4403	H	0.693156	-0.034890	0.765009
	H4404	H	0.777768	-0.037810	0.765682
	H4405	H	0.798537	-0.037690	0.774833
	H4406	H	0.778850	0.533018	0.696135
	H4407	H	0.800044	0.532186	0.692076
	Al4408	Al	0.744640	-0.501621	0.883150
	Al4409	Al	0.744645	-0.252168	0.883411
	Al4410	Al	0.661397	-0.249922	0.799550
	Al4411	Al	0.661371	-0.500375	0.799545
	O4412	O	0.757174	-0.460758	0.907894
	O4413	O	0.744505	-0.376665	0.864041
	O4414	O	0.745029	-0.126748	0.902535
	O4415	O	0.815401	-0.462141	0.942665
	O4416	O	0.732900	-0.460834	0.911687
	O4417	O	0.683533	-0.459928	1.005105
	O4418	O	0.733036	-0.292788	0.912194
	O4419	O	0.732003	-0.211217	0.859714
	O4420	O	0.673909	-0.209433	0.824236
	O4421	O	0.757226	-0.292582	0.908054
	O4422	O	0.757169	-0.211504	0.856759
	O4423	O	0.817003	-0.212292	0.836245
	O4424	O	0.683647	-0.291912	1.005315
	O4425	O	0.732123	-0.042647	0.859171
	O4426	O	0.674090	-0.040956	0.823589
	O4427	O	0.817020	-0.044180	0.836538
	O4428	O	0.757260	-0.042995	0.856976
	O4429	O	0.815399	-0.293863	0.942711
	O4430	O	0.671547	-0.126100	1.014678
	O4431	O	0.829647	-0.377906	0.830939
	C4432	C	0.792121	-0.288219	0.928934
	C4433	C	0.798055	-0.377929	0.932028
	C4434	C	0.792050	-0.467366	0.929258
	C4435	C	0.780392	-0.467041	0.923201
	C4436	C	0.774472	-0.377417	0.919823
	C4437	C	0.780449	-0.287866	0.922874
	C4438	C	0.762061	-0.376815	0.911349
	C4439	C	0.810515	-0.378152	0.939620
	C4440	C	0.728811	-0.376897	0.919749
	C4441	C	0.718258	-0.376942	0.939903
	C4442	C	0.713299	-0.287777	0.949654
	C4443	C	0.703466	-0.287555	0.968229
	C4444	C	0.698350	-0.376288	0.977396
	C4445	C	0.703313	-0.465429	0.967766
	C4446	C	0.713143	-0.465825	0.949169
	C4447	C	0.687760	-0.376038	0.997470
	C4448	C	0.727164	-0.126764	0.856382
	C4449	C	0.714760	-0.126587	0.848528
	C4450	C	0.708868	-0.036819	0.845021
	C4451	C	0.697236	-0.036416	0.838842
	C4452	C	0.691220	-0.126032	0.836030
	C4453	C	0.697092	-0.215928	0.839854
	C4454	C	0.708748	-0.216217	0.846062
	C4455	C	0.678821	-0.125338	0.827367
	C4456	C	0.762251	-0.127456	0.854709
	C4457	C	0.775046	-0.127663	0.849720
	C4458	C	0.781149	-0.217670	0.848042
	C4459	C	0.793084	-0.217742	0.845305
	C4460	C	0.799200	-0.127932	0.843960
	C4461	C	0.793092	-0.037954	0.845618
	C4462	C	0.781163	-0.037813	0.848381
	C4463	C	0.811991	-0.128217	0.838629
	H4464	H	0.797656	-0.287978	0.844216
	H4465	H	0.776562	-0.287658	0.848969
	H4466	H	0.796689	-0.218859	0.931024
	H4467	H	0.775975	-0.218145	0.920425
	H4468	H	0.744445	-0.376288	0.843420
	H4469	H	0.745723	-0.126951	0.923082
	H4470	H	0.670735	-0.126591	0.994002
	H4471	H	0.829297	-0.377612	0.851827
	H4472	H	0.713237	-0.285339	0.849037
	H4473	H	0.692511	-0.285262	0.837746
	H4474	H	0.699747	-0.218249	0.975681
	H4475	H	0.717160	-0.218481	0.942743
	H4476	H	0.692785	0.033401	0.835968
	H4477	H	0.713402	0.032865	0.847128
	H4478	H	0.716892	-0.535144	0.941876
	H4479	H	0.699457	-0.534671	0.974842
	H4480	H	0.775872	-0.536716	0.921032
	H4481	H	0.796511	-0.537148	0.931756
	H4482	H	0.776576	0.032192	0.849594
	H4483	H	0.797718	0.031958	0.844785
	Al4484	Al	0.744627	-0.001487	0.883246
	Al4485	Al	0.744627	0.247859	0.883107
	Al4486	Al	0.661373	0.250211	0.799562
	Al4487	Al	0.661459	-0.000458	0.799374
	O4488	O	0.757209	0.039060	0.907800
	O4489	O	0.744633	0.123231	0.863799
	O4490	O	0.744973	0.373223	0.902528
	O4491	O	0.815355	0.037718	0.942719
	O4492	O	0.733006	0.039404	0.911908
	O4493	O	0.683557	0.039777	1.005027
	O4494	O	0.733013	0.207189	0.911977
	O4495	O	0.732026	0.289102	0.859377
	O4496	O	0.673882	0.291411	0.824393
	O4497	O	0.757331	0.207619	0.907294
	O4498	O	0.757130	0.289213	0.856580
	O4499	O	0.816968	0.287852	0.836662
	O4500	O	0.683602	0.207929	1.005177
	O4501	O	0.732091	0.457646	0.859122
	O4502	O	0.674010	0.459654	0.823899
	O4503	O	0.817042	0.456324	0.836791
	O4504	O	0.757172	0.457638	0.856946
	O4505	O	0.815413	0.206142	0.942514
	O4506	O	0.671606	0.373776	1.014612
	O4507	O	0.829572	0.122047	0.831105
	C4508	C	0.792099	0.212255	0.928874
	C4509	C	0.798010	0.122274	0.932213
	C4510	C	0.792020	0.032674	0.929530
	C4511	C	0.780377	0.032827	0.923336
	C4512	C	0.774477	0.122774	0.919737
	C4513	C	0.780446	0.212560	0.922680
	C4514	C	0.762087	0.123023	0.911055
	C4515	C	0.810462	0.122118	0.939801
	C4516	C	0.728854	0.123414	0.919792
	C4517	C	0.718309	0.123195	0.940010
	C4518	C	0.713362	0.212211	0.949781
	C4519	C	0.703513	0.212438	0.968285
	C4520	C	0.698363	0.123639	0.977393
	C4521	C	0.703262	0.034586	0.967461
	C4522	C	0.713116	0.034303	0.948978
	C4523	C	0.687780	0.123643	0.997449
	C4524	C	0.727180	0.373420	0.856219
	C4525	C	0.714746	0.373907	0.848442
	C4526	C	0.708860	0.463851	0.845080
	C4527	C	0.697206	0.464059	0.838949
	C4528	C	0.691195	0.374604	0.836088
	C4529	C	0.697080	0.284722	0.839872
	C4530	C	0.708718	0.284409	0.846001
	C4531	C	0.678808	0.375271	0.827496
	C4532	C	0.762191	0.373376	0.854645
	C4533	C	0.774974	0.373015	0.849541
	C4534	C	0.781065	0.282866	0.847921
	C4535	C	0.793001	0.282462	0.845315
	C4536	C	0.799174	0.372241	0.844112
	C4537	C	0.793067	0.462203	0.845825
	C4538	C	0.781132	0.462574	0.848464
	C4539	C	0.811954	0.372227	0.838918
	H4540	H	0.797569	0.212247	0.843977
	H4541	H	0.776436	0.213236	0.848591
	H4542	H	0.796624	0.281808	0.931124
	H4543	H	0.775950	0.282079	0.919931
	H4544	H	0.745140	0.123355	0.843151
	H4545	H	0.745572	0.373429	0.923207
	H4546	H	0.670969	0.373507	0.993816
	H4547	H	0.829016	0.122175	0.851832
	H4548	H	0.713128	0.214661	0.848892
	H4549	H	0.692527	0.215416	0.837755
	H4550	H	0.699818	0.281588	0.975787
	H4551	H	0.717245	0.281259	0.942903
	H4552	H	0.692747	0.533747	0.836131
	H4553	H	0.713451	0.532857	0.847169
	H4554	H	0.716801	-0.034691	0.941364
	H4555	H	0.699353	-0.034065	0.974244
	H4556	H	0.775839	-0.036828	0.921078
	H4557	H	0.796506	-0.037171	0.932318
	H4558	H	0.776547	0.532710	0.849491
	H4559	H	0.797710	0.532048	0.844833
	Al4560	Al	0.911356	-0.503003	0.049524
	Al4561	Al	0.911358	-0.253835	0.049831
	Al4562	Al	0.828022	-0.252591	-0.033575
	Al4563	Al	0.827997	-0.503393	-0.033412
	O4564	O	0.924046	-0.463204	0.073754
	O4565	O	0.911260	-0.378244	0.030381
	O4566	O	0.911679	-0.128400	0.069072
	O4567	O	0.982147	-0.461403	0.109358
	O4568	O	0.899716	-0.462421	0.078385
	O4569	O	0.850286	-0.462278	0.171664
	O4570	O	0.899656	-0.294395	0.078392
	O4571	O	0.898765	-0.212588	0.025933
	O4572	O	0.840625	-0.212488	-0.009007
	O4573	O	0.923886	-0.294975	0.074433
	O4574	O	0.923883	-0.212793	0.023431
	O4575	O	0.983716	-0.211016	0.003105
	O4576	O	0.850269	-0.294220	0.171560
	O4577	O	0.898768	-0.044069	0.025848
	O4578	O	0.840621	-0.043740	-0.008966
	O4579	O	0.983608	-0.042853	0.002921
	O4580	O	0.923860	-0.044304	0.023158
	O4581	O	0.982022	-0.292904	0.109795
	O4582	O	0.838359	-0.127904	0.181150
	O4583	O	0.996332	-0.377045	-0.002507
	C4584	C	0.958673	-0.288570	0.096483
	C4585	C	0.964746	-0.377894	0.098943
	C4586	C	0.958888	-0.467739	0.095256
	C4587	C	0.947240	-0.468002	0.089032
	C4588	C	0.941176	-0.378496	0.086357
	C4589	C	0.947034	-0.288748	0.090238
	C4590	C	0.928820	-0.378789	0.077632
	C4591	C	0.977180	-0.377424	0.106633
	C4592	C	0.895534	-0.378543	0.086187
	C4593	C	0.884930	-0.378553	0.106210
	C4594	C	0.879802	-0.289555	0.115356
	C4595	C	0.869955	-0.289544	0.133874
	C4596	C	0.864998	-0.378525	0.143650
	C4597	C	0.870097	-0.467560	0.134344
	C4598	C	0.879940	-0.467477	0.115890
	C4599	C	0.854435	-0.378225	0.163785
	C4600	C	0.893867	-0.128286	0.023023
	C4601	C	0.881419	-0.128221	0.015334
	C4602	C	0.875470	-0.038239	0.012173
	C4603	C	0.863804	-0.038166	0.006050
	C4604	C	0.857865	-0.128118	0.003017
	C4605	C	0.863805	-0.217995	0.006442
	C4606	C	0.875470	-0.218165	0.012583
	C4607	C	0.845459	-0.128153	-0.005534
	C4608	C	0.928889	-0.128477	0.021135
	C4609	C	0.941695	-0.128072	0.016063
	C4610	C	0.947864	-0.217745	0.015145
	C4611	C	0.959785	-0.217472	0.012446
	C4612	C	0.965845	-0.127440	0.010645
	C4613	C	0.959684	-0.037716	0.011746
	C4614	C	0.947757	-0.037904	0.014446
	C4615	C	0.978630	-0.127115	0.005190
	H4616	H	0.964411	-0.287250	0.011680
	H4617	H	0.943318	-0.287983	0.016522
	H4618	H	0.963129	-0.218903	0.099388
	H4619	H	0.942473	-0.219111	0.088164
	H4620	H	0.911391	-0.378335	0.009720
	H4621	H	0.912220	-0.128245	0.089736
	H4622	H	0.837694	-0.127926	0.160486
	H4623	H	0.996198	-0.377430	0.018384
	H4624	H	0.879981	-0.287789	0.015297
	H4625	H	0.859305	-0.287871	0.004036
	H4626	H	0.866086	-0.220919	0.140813
	H4627	H	0.883560	-0.220831	0.107934
	H4628	H	0.859312	0.031553	0.003490
	H4629	H	0.879978	0.031422	0.014580
	H4630	H	0.883804	-0.536550	0.108939
	H4631	H	0.866402	-0.536728	0.141723
	H4632	H	0.942782	-0.537590	0.086058
	H4633	H	0.963495	-0.537149	0.097242
	H4634	H	0.943100	0.031921	0.015290
	H4635	H	0.964228	0.032555	0.010400
	Al4636	Al	0.911335	-0.003167	0.049667
	Al4637	Al	0.911344	0.246292	0.049590
	Al4638	Al	0.827980	0.247433	-0.033487
	Al4639	Al	0.827986	-0.003108	-0.033483
	O4640	O	0.923990	0.037054	0.074008
	O4641	O	0.911277	0.121684	0.030315
	O4642	O	0.911781	0.371539	0.068798
	O4643	O	0.982112	0.038724	0.109485
	O4644	O	0.899692	0.037971	0.078415
	O4645	O	0.850290	0.038073	0.171593
	O4646	O	0.899643	0.206222	0.078127
	O4647	O	0.898801	0.288043	0.025515
	O4648	O	0.840581	0.287666	-0.008807
	O4649	O	0.923885	0.205633	0.074270
	O4650	O	0.923966	0.287266	0.023437
	O4651	O	0.983742	0.288917	0.003310
	O4652	O	0.850285	0.206139	0.171645
	O4653	O	0.898699	0.456260	0.025819
	O4654	O	0.840549	0.455855	-0.008842
	O4655	O	0.983708	0.457156	0.003199
	O4656	O	0.923871	0.455625	0.022866
	O4657	O	0.981991	0.206942	0.109678
	O4658	O	0.838248	0.371997	0.181147
	O4659	O	0.996250	0.122595	-0.002395
	C4660	C	0.958697	0.211853	0.096134
	C4661	C	0.964697	0.122332	0.098854
	C4662	C	0.958781	0.032577	0.095504
	C4663	C	0.947149	0.032115	0.089181
	C4664	C	0.941159	0.121579	0.086136
	C4665	C	0.947055	0.211400	0.089813
	C4666	C	0.928773	0.121571	0.077590
	C4667	C	0.977149	0.122611	0.106552
	C4668	C	0.895511	0.122002	0.086117
	C4669	C	0.884932	0.122336	0.106163
	C4670	C	0.879825	0.211396	0.115456
	C4671	C	0.870014	0.211424	0.133968
	C4672	C	0.865009	0.122185	0.143643
	C4673	C	0.870112	0.033044	0.134313
	C4674	C	0.879938	0.033183	0.115812
	C4675	C	0.854431	0.122143	0.163857
	C4676	C	0.893851	0.371983	0.022732
	C4677	C	0.881374	0.372216	0.015212
	C4678	C	0.875409	0.461911	0.012172
	C4679	C	0.863757	0.461665	0.006124
	C4680	C	0.857811	0.371898	0.003086
	C4681	C	0.863753	0.282219	0.006492
	C4682	C	0.875396	0.282441	0.012521
	C4683	C	0.845407	0.371992	-0.005402
	C4684	C	0.928974	0.371570	0.021110
	C4685	C	0.941761	0.371828	0.015970
	C4686	C	0.947945	0.282380	0.014971
	C4687	C	0.959877	0.282793	0.012339
	C4688	C	0.965933	0.372725	0.010732
	C4689	C	0.959749	0.462290	0.011732
	C4690	C	0.947822	0.461892	0.014273
	C4691	C	0.978703	0.373026	0.005374
	H4692	H	0.964487	0.212854	0.011638
	H4693	H	0.943363	0.212418	0.016426
	H4694	H	0.963174	0.281305	0.098916
	H4695	H	0.942480	0.280816	0.087686
	H4696	H	0.911419	0.121705	0.009683
	H4697	H	0.912773	0.371604	0.089673
	H4698	H	0.837429	0.372498	0.160626
	H4699	H	0.996003	0.122217	0.018433
	H4700	H	0.879937	0.212960	0.015121
	H4701	H	0.859249	0.212457	0.004281
	H4702	H	0.866179	0.280404	0.141175
	H4703	H	0.883568	0.280803	0.108082
	H4704	H	0.859217	0.531436	0.003595
	H4705	H	0.879911	0.531522	0.014528
	H4706	H	0.883815	-0.035791	0.108696
	H4707	H	0.866369	-0.036222	0.141777
	H4708	H	0.942715	-0.037822	0.086441
	H4709	H	0.963347	-0.036788	0.097648
	H4710	H	0.943183	0.531729	0.015118
	H4711	H	0.964315	0.532279	0.010522
	Al4712	Al	0.921948	-0.502735	0.284129
	Al4713	Al	0.921947	-0.252117	0.284570
	Al4714	Al	0.838656	-0.253274	0.200362
	Al4715	Al	0.838645	-0.502700	0.200446
	O4716	O	0.934579	-0.462016	0.308121
	O4717	O	0.921569	-0.377464	0.265021
	O4718	O	0.922000	-0.127184	0.303676
	O4719	O	0.992816	-0.460196	0.342325
	O4720	O	0.909477	-0.461286	0.310797
	O4721	O	0.849629	-0.462701	0.330151
	O4722	O	0.909442	-0.293134	0.310999
	O4723	O	0.909373	-0.211594	0.259786
	O4724	O	0.851284	-0.212295	0.224245
	O4725	O	0.934519	-0.293320	0.308398
	O4726	O	0.933645	-0.212034	0.255772
	O4727	O	0.983058	-0.211655	0.162257
	O4728	O	0.849567	-0.294449	0.330037
	O4729	O	0.909372	-0.043252	0.259876
	O4730	O	0.851229	-0.043880	0.224418
	O4731	O	0.982917	-0.043560	0.162004
	O4732	O	0.933640	-0.043776	0.255570
	O4733	O	0.992720	-0.291521	0.342415
	O4734	O	0.837005	-0.128645	0.335807
	O4735	O	0.995043	-0.377148	0.152694
	C4736	C	0.969511	-0.286562	0.327606
	C4737	C	0.975530	-0.376479	0.330324
	C4738	C	0.969627	-0.466561	0.327074
	C4739	C	0.957954	-0.467029	0.321184
	C4740	C	0.951940	-0.377322	0.318513
	C4741	C	0.957846	-0.287156	0.321675
	C4742	C	0.939437	-0.377707	0.311122
	C4743	C	0.987934	-0.375925	0.338906
	C4744	C	0.904418	-0.377348	0.312894
	C4745	C	0.891611	-0.377538	0.317769
	C4746	C	0.885444	-0.287922	0.318976
	C4747	C	0.873519	-0.288061	0.321466
	C4748	C	0.867429	-0.378021	0.322777
	C4749	C	0.873590	-0.467652	0.321509
	C4750	C	0.885520	-0.467499	0.319028
	C4751	C	0.854624	-0.378444	0.328006
	C4752	C	0.904513	-0.127310	0.256401
	C4753	C	0.892144	-0.127543	0.247559
	C4754	C	0.886176	-0.037886	0.244119
	C4755	C	0.874523	-0.038127	0.237911
	C4756	C	0.868571	-0.127784	0.235072
	C4757	C	0.874561	-0.217320	0.238071
	C4758	C	0.886213	-0.217203	0.244301
	C4759	C	0.856120	-0.128273	0.227317
	C4760	C	0.937788	-0.128118	0.247823
	C4761	C	0.948341	-0.127933	0.227578
	C4762	C	0.953485	-0.216759	0.218394
	C4763	C	0.963296	-0.216604	0.199822
	C4764	C	0.968235	-0.127826	0.190104
	C4765	C	0.963114	-0.039020	0.199343
	C4766	C	0.953309	-0.039136	0.217943
	C4767	C	0.978783	-0.127640	0.169818
	H4768	H	0.967133	-0.285580	0.192738
	H4769	H	0.949772	-0.285901	0.225861
	H4770	H	0.973951	-0.216528	0.330328
	H4771	H	0.953233	-0.217665	0.319642
	H4772	H	0.920957	-0.377225	0.244390
	H4773	H	0.921727	-0.125958	0.324433
	H4774	H	0.837442	-0.129472	0.315067
	H4775	H	0.995819	-0.376751	0.173287
	H4776	H	0.890700	-0.286617	0.246860
	H4777	H	0.870069	-0.286921	0.235691
	H4778	H	0.868889	-0.218177	0.322366
	H4779	H	0.890023	-0.217934	0.317909
	H4780	H	0.869973	0.031451	0.235492
	H4781	H	0.890658	0.031579	0.246598
	H4782	H	0.890151	-0.537523	0.317948
	H4783	H	0.869011	-0.537515	0.322427
	H4784	H	0.953445	-0.537053	0.318837
	H4785	H	0.974191	-0.536217	0.329443
	H4786	H	0.949456	0.029875	0.224989
	H4787	H	0.966807	0.029767	0.191821
	Al4788	Al	0.921991	-0.002750	0.284270
	Al4789	Al	0.921952	0.247972	0.284105
	Al4790	Al	0.838633	0.246628	0.200457
	Al4791	Al	0.838618	-0.002634	0.200526
	O4792	O	0.934576	0.038503	0.308094
	O4793	O	0.921646	0.122669	0.264870
	O4794	O	0.922028	0.372573	0.303388
	O4795	O	0.992788	0.040493	0.342391
	O4796	O	0.909513	0.038689	0.310699
	O4797	O	0.849695	0.036954	0.330352
	O4798	O	0.909437	0.206869	0.310518
	O4799	O	0.909357	0.288195	0.259728
	O4800	O	0.851242	0.287574	0.224349
	O4801	O	0.934539	0.206946	0.308035
	O4802	O	0.933617	0.288746	0.255354
	O4803	O	0.983077	0.288708	0.162446
	O4804	O	0.849599	0.205085	0.330203
	O4805	O	0.909358	0.456687	0.259483
	O4806	O	0.851194	0.456085	0.224366
	O4807	O	0.982954	0.457072	0.162155
	O4808	O	0.933502	0.456783	0.255223
	O4809	O	0.992665	0.208978	0.342835
	O4810	O	0.836985	0.371510	0.335717
	O4811	O	0.994988	0.122173	0.152874
	C4812	C	0.969485	0.213521	0.327639
	C4813	C	0.975505	0.124065	0.330578
	C4814	C	0.969597	0.034040	0.327368
	C4815	C	0.957924	0.033676	0.321455
	C4816	C	0.951922	0.123241	0.318559
	C4817	C	0.957817	0.213178	0.321661
	C4818	C	0.939479	0.122912	0.310878
	C4819	C	0.987903	0.124733	0.339124
	C4820	C	0.904436	0.122615	0.312753
	C4821	C	0.891626	0.122219	0.317454
	C4822	C	0.885468	0.211798	0.318802
	C4823	C	0.873545	0.211316	0.321369
	C4824	C	0.867454	0.121516	0.322737
	C4825	C	0.873620	0.032064	0.321524
	C4826	C	0.885544	0.032308	0.318951
	C4827	C	0.854677	0.121126	0.328057
	C4828	C	0.904502	0.372307	0.256119
	C4829	C	0.892130	0.372585	0.247352
	C4830	C	0.886159	0.462057	0.244193
	C4831	C	0.874496	0.461958	0.238043
	C4832	C	0.868571	0.372240	0.234951
	C4833	C	0.874557	0.282807	0.237625
	C4834	C	0.886233	0.282843	0.243753
	C4835	C	0.856135	0.372052	0.227302
	C4836	C	0.937751	0.372803	0.247580
	C4837	C	0.948313	0.373039	0.227485
	C4838	C	0.953498	0.283905	0.218477
	C4839	C	0.963342	0.283781	0.200056
	C4840	C	0.968301	0.372803	0.190255
	C4841	C	0.963145	0.461903	0.199351
	C4842	C	0.953295	0.462018	0.217757
	C4843	C	0.978831	0.373031	0.170151
	H4844	H	0.967236	0.214929	0.193148
	H4845	H	0.949778	0.215104	0.226036
	H4846	H	0.973975	0.283219	0.330261
	H4847	H	0.953297	0.282768	0.319317
	H4848	H	0.921032	0.122700	0.244131
	H4849	H	0.921808	0.372957	0.324150
	H4850	H	0.837108	0.371569	0.314929
	H4851	H	0.995836	0.122120	0.173437
	H4852	H	0.890785	0.213277	0.246019
	H4853	H	0.870098	0.213206	0.234956
	H4854	H	0.868912	0.281099	0.322074
	H4855	H	0.890038	0.281650	0.317682
	H4856	H	0.869986	0.531473	0.235689
	H4857	H	0.890612	0.531644	0.246707
	H4858	H	0.890189	-0.037211	0.317953
	H4859	H	0.869054	-0.037896	0.322487
	H4860	H	0.953424	-0.035931	0.318908
	H4861	H	0.974136	-0.035667	0.329706
	H4862	H	0.949424	0.530932	0.224747
	H4863	H	0.966871	0.530608	0.191820
	Al4864	Al	0.920173	-0.502702	0.438036
	Al4865	Al	0.920157	-0.252689	0.438002
	Al4866	Al	0.836746	-0.253629	0.355250
	Al4867	Al	0.836803	-0.503306	0.355206
	O4868	O	0.932452	-0.462341	0.463566
	O4869	O	0.920368	-0.377795	0.418503
	O4870	O	0.919876	-0.127872	0.457479
	O4871	O	0.991188	-0.460623	0.495795
	O4872	O	0.907283	-0.461551	0.463033
	O4873	O	0.847385	-0.462210	0.482265
	O4874	O	0.907172	-0.293205	0.462828
	O4875	O	0.907849	-0.211714	0.412374
	O4876	O	0.849155	-0.213086	0.380570
	O4877	O	0.932324	-0.293975	0.463949
	O4878	O	0.933037	-0.212536	0.413119
	O4879	O	0.992859	-0.210010	0.393571
	O4880	O	0.847371	-0.294139	0.482367
	O4881	O	0.907800	-0.043284	0.412536
	O4882	O	0.849054	-0.044875	0.380862
	O4883	O	0.992803	-0.041504	0.393414
	O4884	O	0.932936	-0.044277	0.412838
	O4885	O	0.991069	-0.292357	0.496104
	O4886	O	0.834741	-0.128214	0.487631
	O4887	O	1.005377	-0.375782	0.386413
	C4888	C	0.967633	-0.287002	0.482489
	C4889	C	0.973724	-0.376835	0.484915
	C4890	C	0.967709	-0.466861	0.482179
	C4891	C	0.955943	-0.467286	0.477062
	C4892	C	0.949846	-0.377543	0.474568
	C4893	C	0.955858	-0.287556	0.477352
	C4894	C	0.937324	-0.378047	0.466780
	C4895	C	0.986251	-0.376612	0.492789
	C4896	C	0.902189	-0.377566	0.465057
	C4897	C	0.889393	-0.377872	0.470146
	C4898	C	0.883261	-0.288115	0.471325
	C4899	C	0.871328	-0.288324	0.473876
	C4900	C	0.865219	-0.378169	0.475245
	C4901	C	0.871367	-0.467894	0.474129
	C4902	C	0.883290	-0.467703	0.471592
	C4903	C	0.852406	-0.378147	0.480290
	C4904	C	0.902920	-0.127624	0.409384
	C4905	C	0.890370	-0.127765	0.401849
	C4906	C	0.884285	-0.037975	0.399295
	C4907	C	0.872519	-0.038370	0.394254
	C4908	C	0.866538	-0.128579	0.391528
	C4909	C	0.872636	-0.218295	0.393911
	C4910	C	0.884409	-0.217726	0.398946
	C4911	C	0.854002	-0.129007	0.383968
	C4912	C	0.938028	-0.128202	0.410897
	C4913	C	0.950843	-0.127551	0.405764
	C4914	C	0.957050	-0.217046	0.404663
	C4915	C	0.968963	-0.216660	0.402138
	C4916	C	0.975004	-0.126352	0.400587
	C4917	C	0.968800	-0.036792	0.401423
	C4918	C	0.956886	-0.037196	0.403968
	C4919	C	0.987814	-0.126065	0.395587
	H4920	H	0.973660	-0.286049	0.401262
	H4921	H	0.952513	-0.287505	0.405950
	H4922	H	0.972092	-0.216639	0.484736
	H4923	H	0.951258	-0.217750	0.475501
	H4924	H	0.920471	-0.378199	0.397743
	H4925	H	0.919466	-0.128529	0.478305
	H4926	H	0.835187	-0.129127	0.466834
	H4927	H	1.005163	-0.376203	0.407180
	H4928	H	0.889005	-0.287572	0.400724
	H4929	H	0.868157	-0.288671	0.391774
	H4930	H	0.866685	-0.218538	0.474868
	H4931	H	0.887824	-0.218087	0.470305
	H4932	H	0.867954	0.031312	0.392368
	H4933	H	0.888785	0.032286	0.401348
	H4934	H	0.887928	-0.537669	0.470737
	H4935	H	0.866805	-0.537948	0.475314
	H4936	H	0.951484	-0.537714	0.475064
	H4937	H	0.972286	-0.537007	0.484227
	H4938	H	0.952180	0.032368	0.404683
	H4939	H	0.973334	0.033375	0.400028
	Al4940	Al	0.920174	-0.003050	0.438050
	Al4941	Al	0.920110	0.247220	0.438162
	Al4942	Al	0.836799	0.246343	0.355243
	Al4943	Al	0.836787	-0.003651	0.355211
	O4944	O	0.932510	0.037935	0.463555
	O4945	O	0.920393	0.121988	0.418732
	O4946	O	0.919942	0.372226	0.457662
	O4947	O	0.991235	0.039376	0.495979
	O4948	O	0.907326	0.038026	0.463195
	O4949	O	0.847457	0.037363	0.482330
	O4950	O	0.907215	0.206519	0.462943
	O4951	O	0.907824	0.288515	0.412575
	O4952	O	0.849056	0.287192	0.380913
	O4953	O	0.932394	0.206201	0.463859
	O4954	O	0.933051	0.287799	0.413207
	O4955	O	0.992930	0.290384	0.393826
	O4956	O	0.847383	0.205627	0.481939
	O4957	O	0.907782	0.456670	0.412591
	O4958	O	0.849041	0.455479	0.380779
	O4959	O	0.992775	0.458900	0.393339
	O4960	O	0.932935	0.456009	0.412832
	O4961	O	0.991090	0.207546	0.496119
	O4962	O	0.834770	0.371877	0.487526
	O4963	O	1.005340	0.124327	0.386409
	C4964	C	0.967653	0.212529	0.482389
	C4965	C	0.973750	0.122847	0.484901
	C4966	C	0.967751	0.032755	0.481982
	C4967	C	0.955989	0.032463	0.476846
	C4968	C	0.949892	0.122191	0.474447
	C4969	C	0.955905	0.212203	0.477176
	C4970	C	0.937361	0.122160	0.466762
	C4971	C	0.986258	0.123249	0.492820
	C4972	C	0.902232	0.122103	0.465229
	C4973	C	0.889439	0.121775	0.470213
	C4974	C	0.883280	0.211529	0.471361
	C4975	C	0.871346	0.211565	0.473754
	C4976	C	0.865257	0.121467	0.475202
	C4977	C	0.871411	0.031580	0.474044
	C4978	C	0.883353	0.031695	0.471644
	C4979	C	0.852457	0.121626	0.479928
	C4980	C	0.902895	0.372578	0.409503
	C4981	C	0.890346	0.372417	0.401912
	C4982	C	0.884298	0.462157	0.399112
	C4983	C	0.872522	0.461632	0.394063
	C4984	C	0.866482	0.371540	0.391713
	C4985	C	0.872555	0.281894	0.394361
	C4986	C	0.884340	0.282417	0.399394
	C4987	C	0.853948	0.371423	0.383985
	C4988	C	0.938028	0.372089	0.410829
	C4989	C	0.950818	0.372432	0.405697
	C4990	C	0.957019	0.282910	0.404631
	C4991	C	0.968953	0.283242	0.402112
	C4992	C	0.975014	0.373479	0.400505
	C4993	C	0.968801	0.463062	0.401518
	C4994	C	0.956872	0.462649	0.404024
	C4995	C	0.987799	0.374371	0.395695
	H4996	H	0.973604	0.213585	0.401410
	H4997	H	0.952449	0.212877	0.405749
	H4998	H	0.972147	0.282783	0.484569
	H4999	H	0.951375	0.282048	0.475382
	H5000	H	0.920557	0.121464	0.397917
	H5001	H	0.919713	0.372329	0.478466
	H5002	H	0.835108	0.371416	0.466690
	H5003	H	1.004943	0.123819	0.407116
	H5004	H	0.888909	0.212501	0.401327
	H5005	H	0.868090	0.211616	0.392387
	H5006	H	0.866751	0.281594	0.474705
	H5007	H	0.887899	0.281775	0.470505
	H5008	H	0.868022	0.531685	0.391891
	H5009	H	0.888793	0.532241	0.400881
	H5010	H	0.887972	-0.037964	0.471119
	H5011	H	0.866787	-0.038347	0.475281
	H5012	H	0.951461	-0.037554	0.474778
	H5013	H	0.972324	-0.037356	0.483883
	H5014	H	0.952217	0.532470	0.404664
	H5015	H	0.973373	0.533064	0.400281
	Al5016	Al	0.917817	-0.502892	0.590699
	Al5017	Al	0.917852	-0.252949	0.590385
	Al5018	Al	0.834473	-0.253023	0.507153
	Al5019	Al	0.834449	-0.503274	0.507126
	O5020	O	0.930111	-0.461921	0.616189
	O5021	O	0.918042	-0.378319	0.571046
	O5022	O	0.917537	-0.128030	0.609793
	O5023	O	0.988849	-0.460390	0.648363
	O5024	O	0.904969	-0.461970	0.615587
	O5025	O	0.845113	-0.462295	0.634583
	O5026	O	0.904949	-0.293393	0.615474
	O5027	O	0.905564	-0.211996	0.564646
	O5028	O	0.846743	-0.212314	0.532777
	O5029	O	0.930076	-0.293603	0.616204
	O5030	O	0.930777	-0.212409	0.565959
	O5031	O	0.990696	-0.210379	0.546972
	O5032	O	0.845073	-0.294123	0.634505
	O5033	O	0.905463	-0.043575	0.565083
	O5034	O	0.846704	-0.044033	0.532873
	O5035	O	0.990540	-0.042048	0.546405
	O5036	O	0.930675	-0.044315	0.565415
	O5037	O	0.988762	-0.292108	0.648647
	O5038	O	0.832437	-0.127896	0.639958
	O5039	O	1.003273	-0.376614	0.540885
	C5040	C	0.965249	-0.287092	0.635368
	C5041	C	0.971369	-0.376692	0.637637
	C5042	C	0.965378	-0.466772	0.634742
	C5043	C	0.953604	-0.466925	0.629595
	C5044	C	0.947518	-0.377251	0.627164
	C5045	C	0.953487	-0.287178	0.630222
	C5046	C	0.935029	-0.377643	0.619300
	C5047	C	0.983893	-0.376435	0.645320
	C5048	C	0.899900	-0.377527	0.617505
	C5049	C	0.887111	-0.377801	0.622463
	C5050	C	0.880976	-0.287920	0.623655
	C5051	C	0.869035	-0.287999	0.626016
	C5052	C	0.862921	-0.378068	0.627286
	C5053	C	0.869054	-0.467920	0.626275
	C5054	C	0.880992	-0.467851	0.623892
	C5055	C	0.850157	-0.378060	0.632456
	C5056	C	0.900586	-0.127867	0.561801
	C5057	C	0.888050	-0.128051	0.554145
	C5058	C	0.881987	-0.038070	0.551574
	C5059	C	0.870209	-0.038135	0.546490
	C5060	C	0.864193	-0.128100	0.543657
	C5061	C	0.870263	-0.217937	0.546319
	C5062	C	0.882039	-0.217942	0.551396
	C5063	C	0.851648	-0.128027	0.536025
	C5064	C	0.935769	-0.128133	0.563556
	C5065	C	0.948583	-0.127773	0.558638
	C5066	C	0.954789	-0.217279	0.557848
	C5067	C	0.966725	-0.216889	0.555434
	C5068	C	0.972783	-0.126864	0.553723
	C5069	C	0.966581	-0.037168	0.554429
	C5070	C	0.954637	-0.037519	0.556849
	C5071	C	0.985580	-0.126412	0.548766
	H5072	H	0.971399	-0.286563	0.554862
	H5073	H	0.950250	-0.287617	0.559189
	H5074	H	0.969720	-0.216932	0.637618
	H5075	H	0.948906	-0.217309	0.628566
	H5076	H	0.918370	-0.378200	0.550225
	H5077	H	0.916932	-0.127952	0.630606
	H5078	H	0.832855	-0.127704	0.619161
	H5079	H	1.003193	-0.376325	0.561683
	H5080	H	0.886611	-0.288079	0.553158
	H5081	H	0.865778	-0.288238	0.544294
	H5082	H	0.864444	-0.217988	0.626954
	H5083	H	0.885577	-0.217816	0.622700
	H5084	H	0.865636	0.031879	0.544501
	H5085	H	0.886487	0.032012	0.553405
	H5086	H	0.885582	-0.538025	0.623176
	H5087	H	0.864466	-0.538104	0.627407
	H5088	H	0.949087	-0.536964	0.627417
	H5089	H	0.969940	-0.536839	0.636492
	H5090	H	0.949952	0.032419	0.557362
	H5091	H	0.971146	0.033174	0.553110
	Al5092	Al	0.917853	-0.003067	0.590472
	Al5093	Al	0.917855	0.247066	0.590746
	Al5094	Al	0.834522	0.246927	0.506947
	Al5095	Al	0.834475	-0.002865	0.506969
	O5096	O	0.930169	0.037990	0.616125
	O5097	O	0.918042	0.122017	0.571076
	O5098	O	0.917552	0.372020	0.610050
	O5099	O	0.988937	0.039620	0.648416
	O5100	O	0.904960	0.037467	0.615447
	O5101	O	0.845129	0.037268	0.634470
	O5102	O	0.904987	0.205956	0.615725
	O5103	O	0.905555	0.287480	0.565004
	O5104	O	0.846891	0.287508	0.532422
	O5105	O	0.930113	0.206186	0.616410
	O5106	O	0.930764	0.287757	0.565838
	O5107	O	0.990617	0.289392	0.546661
	O5108	O	0.845099	0.205743	0.634284
	O5109	O	0.905479	0.455752	0.565299
	O5110	O	0.846800	0.455885	0.532803
	O5111	O	0.990528	0.457842	0.546084
	O5112	O	0.930683	0.456039	0.565696
	O5113	O	0.988810	0.207913	0.648482
	O5114	O	0.832450	0.371746	0.639961
	O5115	O	1.003272	0.123410	0.541046
	C5116	C	0.965302	0.212740	0.635392
	C5117	C	0.971427	0.123125	0.637622
	C5118	C	0.965440	0.033126	0.634657
	C5119	C	0.953692	0.032562	0.629555
	C5120	C	0.947561	0.122193	0.627194
	C5121	C	0.953544	0.212322	0.630291
	C5122	C	0.935028	0.121995	0.619514
	C5123	C	0.983956	0.123471	0.645206
	C5124	C	0.899921	0.121595	0.617653
	C5125	C	0.887118	0.121668	0.622711
	C5126	C	0.880987	0.211708	0.623885
	C5127	C	0.869060	0.211685	0.626177
	C5128	C	0.862958	0.121715	0.627571
	C5129	C	0.869089	0.031722	0.626463
	C5130	C	0.881015	0.031689	0.624110
	C5131	C	0.850149	0.121597	0.632438
	C5132	C	0.900622	0.371550	0.562021
	C5133	C	0.888088	0.371524	0.554105
	C5134	C	0.882040	0.461559	0.551411
	C5135	C	0.870294	0.461726	0.546228
	C5136	C	0.864262	0.371866	0.543540
	C5137	C	0.870302	0.281927	0.546098
	C5138	C	0.882038	0.281787	0.551333
	C5139	C	0.851753	0.371596	0.535749
	C5140	C	0.935746	0.371859	0.563576
	C5141	C	0.948552	0.372286	0.558671
	C5142	C	0.954716	0.282503	0.557841
	C5143	C	0.966664	0.283110	0.555347
	C5144	C	0.972728	0.373248	0.553532
	C5145	C	0.966548	0.462847	0.554264
	C5146	C	0.954620	0.462338	0.556740
	C5147	C	0.985518	0.373573	0.548643
	H5148	H	0.971308	0.213253	0.554709
	H5149	H	0.950142	0.212481	0.559000
	H5150	H	0.969775	0.282951	0.637563
	H5151	H	0.948962	0.282098	0.628589
	H5152	H	0.918103	0.122384	0.550417
	H5153	H	0.917200	0.372017	0.630842
	H5154	H	0.832866	0.372067	0.619268
	H5155	H	1.003020	0.123438	0.561804
	H5156	H	0.886556	0.211601	0.553314
	H5157	H	0.865752	0.212004	0.544025
	H5158	H	0.864443	0.281362	0.626974
	H5159	H	0.885573	0.281703	0.622708
	H5160	H	0.865760	0.531792	0.544229
	H5161	H	0.886601	0.531454	0.553505
	H5162	H	0.885641	-0.038231	0.623101
	H5163	H	0.864477	-0.038199	0.627389
	H5164	H	0.949203	-0.037603	0.627277
	H5165	H	0.970064	-0.036761	0.636162
	H5166	H	0.949964	0.532297	0.556954
	H5167	H	0.971073	0.533207	0.552767
	Al5168	Al	0.915534	-0.503336	0.742726
	Al5169	Al	0.915479	-0.253260	0.742674
	Al5170	Al	0.832181	-0.253220	0.659360
	Al5171	Al	0.832220	-0.503058	0.659485
	O5172	O	0.927893	-0.462726	0.768278
	O5173	O	0.915732	-0.378248	0.723372
	O5174	O	0.915257	-0.128454	0.762172
	O5175	O	0.986610	-0.460906	0.800550
	O5176	O	0.902685	-0.462351	0.767676
	O5177	O	0.842746	-0.462405	0.786669
	O5178	O	0.902620	-0.293935	0.767668
	O5179	O	0.903236	-0.212544	0.716989
	O5180	O	0.844433	-0.212441	0.685159
	O5181	O	0.927769	-0.294442	0.768458
	O5182	O	0.928395	-0.212617	0.717966
	O5183	O	0.988283	-0.210648	0.699091
	O5184	O	0.842752	-0.294097	0.786497
	O5185	O	0.903171	-0.044269	0.717254
	O5186	O	0.844436	-0.044068	0.684972
	O5187	O	0.988234	-0.042181	0.698747
	O5188	O	0.928386	-0.043989	0.717932
	O5189	O	0.986494	-0.292849	0.800909
	O5190	O	0.830099	-0.127853	0.792034
	O5191	O	1.000851	-0.376811	0.693359
	C5192	C	0.963021	-0.287531	0.787271
	C5193	C	0.969130	-0.377179	0.789762
	C5194	C	0.963121	-0.467249	0.786979
	C5195	C	0.951362	-0.467747	0.781795
	C5196	C	0.945275	-0.378087	0.779188
	C5197	C	0.951258	-0.288020	0.782128
	C5198	C	0.932744	-0.378246	0.771482
	C5199	C	0.981650	-0.377156	0.797537
	C5200	C	0.897632	-0.378207	0.769885
	C5201	C	0.884810	-0.378576	0.774923
	C5202	C	0.878679	-0.288626	0.776216
	C5203	C	0.866736	-0.288548	0.778524
	C5204	C	0.860605	-0.378492	0.779641
	C5205	C	0.866738	-0.468347	0.778413
	C5206	C	0.878679	-0.468441	0.776073
	C5207	C	0.847776	-0.378228	0.784538
	C5208	C	0.898268	-0.128304	0.714009
	C5209	C	0.885751	-0.128246	0.706499
	C5210	C	0.879675	-0.038252	0.703813
	C5211	C	0.867931	-0.038406	0.698700
	C5212	C	0.861863	-0.128278	0.695978
	C5213	C	0.867962	-0.218211	0.698395
	C5214	C	0.879710	-0.218218	0.703516
	C5215	C	0.849346	-0.128212	0.688313
	C5216	C	0.933429	-0.128199	0.715774
	C5217	C	0.946238	-0.127647	0.710930
	C5218	C	0.952424	-0.217310	0.710124
	C5219	C	0.964360	-0.216788	0.707778
	C5220	C	0.970430	-0.126682	0.706034
	C5221	C	0.964256	-0.036910	0.706760
	C5222	C	0.952315	-0.037440	0.709133
	C5223	C	0.983228	-0.126593	0.701072
	H5224	H	0.969045	-0.286499	0.707405
	H5225	H	0.947880	-0.287487	0.711440
	H5226	H	0.967497	-0.217292	0.789328
	H5227	H	0.946673	-0.218085	0.780265
	H5228	H	0.916117	-0.378439	0.702566
	H5229	H	0.915112	-0.128477	0.783011
	H5230	H	0.830286	-0.127684	0.771357
	H5231	H	1.000379	-0.377570	0.714107
	H5232	H	0.884243	-0.288362	0.705372
	H5233	H	0.863386	-0.288145	0.696313
	H5234	H	0.862152	-0.218334	0.779395
	H5235	H	0.883309	-0.218618	0.775343
	H5236	H	0.863378	0.031745	0.696943
	H5237	H	0.884218	0.031726	0.705975
	H5238	H	0.883287	-0.538550	0.775143
	H5239	H	0.862103	-0.538311	0.779278
	H5240	H	0.946886	-0.537921	0.779790
	H5241	H	0.967724	-0.537253	0.788898
	H5242	H	0.947659	0.032324	0.709685
	H5243	H	0.968823	0.033384	0.705500
	Al5244	Al	0.915537	-0.003360	0.742783
	Al5245	Al	0.915488	0.246333	0.742869
	Al5246	Al	0.832193	0.246895	0.659279
	Al5247	Al	0.832158	-0.002850	0.659276
	O5248	O	0.927856	0.037302	0.768415
	O5249	O	0.915790	0.121666	0.723348
	O5250	O	0.915260	0.371727	0.762184
	O5251	O	0.986604	0.039073	0.800405
	O5252	O	0.902653	0.037453	0.767702
	O5253	O	0.842728	0.037948	0.786658
	O5254	O	0.902614	0.205806	0.767544
	O5255	O	0.903244	0.287864	0.717057
	O5256	O	0.844548	0.287566	0.684756
	O5257	O	0.927746	0.205402	0.768679
	O5258	O	0.928429	0.287252	0.718232
	O5259	O	0.988284	0.289394	0.699001
	O5260	O	0.842697	0.206469	0.786592
	O5261	O	0.903215	0.456207	0.717235
	O5262	O	0.844412	0.455922	0.685246
	O5263	O	0.988193	0.458004	0.698688
	O5264	O	0.928342	0.455987	0.717684
	O5265	O	0.986546	0.207136	0.800684
	O5266	O	0.830081	0.371932	0.792213
	O5267	O	1.000917	0.123315	0.693473
	C5268	C	0.962984	0.212248	0.787456
	C5269	C	0.969107	0.122664	0.789751
	C5270	C	0.963122	0.032705	0.786812
	C5271	C	0.951347	0.032235	0.781727
	C5272	C	0.945229	0.121869	0.779364
	C5273	C	0.951208	0.211916	0.782351
	C5274	C	0.932713	0.121532	0.771641
	C5275	C	0.981626	0.123103	0.797492
	C5276	C	0.897582	0.121548	0.769794
	C5277	C	0.884761	0.121637	0.774804
	C5278	C	0.878642	0.211768	0.776120
	C5279	C	0.866697	0.211979	0.778421
	C5280	C	0.860567	0.122138	0.779624
	C5281	C	0.866681	0.032058	0.778272
	C5282	C	0.878625	0.031754	0.775940
	C5283	C	0.847743	0.122270	0.784496
	C5284	C	0.898318	0.371942	0.713995
	C5285	C	0.885766	0.371993	0.706380
	C5286	C	0.879706	0.461894	0.703902
	C5287	C	0.867920	0.461874	0.698802
	C5288	C	0.861927	0.372038	0.695939
	C5289	C	0.867985	0.282088	0.698400
	C5290	C	0.879756	0.282218	0.703545
	C5291	C	0.849387	0.371834	0.688210
	C5292	C	0.933407	0.371568	0.715923
	C5293	C	0.946227	0.371898	0.710855
	C5294	C	0.952427	0.282319	0.710017
	C5295	C	0.964370	0.282887	0.707627
	C5296	C	0.970402	0.373371	0.706009
	C5297	C	0.964225	0.463134	0.707059
	C5298	C	0.952279	0.462348	0.709453
	C5299	C	0.983213	0.373687	0.700863
	H5300	H	0.969016	0.213014	0.706953
	H5301	H	0.947883	0.211847	0.711264
	H5302	H	0.967459	0.282662	0.789549
	H5303	H	0.946642	0.281941	0.780454
	H5304	H	0.916154	0.121114	0.702585
	H5305	H	0.915134	0.371653	0.782985
	H5306	H	0.830246	0.372222	0.771465
	H5307	H	1.000613	0.123390	0.714160
	H5308	H	0.884296	0.212240	0.705351
	H5309	H	0.863512	0.211766	0.696314
	H5310	H	0.862094	0.282005	0.779321
	H5311	H	0.883238	0.281955	0.775266
	H5312	H	0.863372	0.531938	0.696984
	H5313	H	0.884181	0.532285	0.705978
	H5314	H	0.883245	-0.038345	0.774982
	H5315	H	0.862071	-0.038092	0.779059
	H5316	H	0.946873	-0.038097	0.779321
	H5317	H	0.967701	-0.036964	0.788381
	H5318	H	0.947612	0.532429	0.710306
	H5319	H	0.968780	0.533326	0.705970
	Al5320	Al	0.913232	-0.503548	0.894937
	Al5321	Al	0.913221	-0.253484	0.895154
	Al5322	Al	0.829870	-0.253214	0.811368
	Al5323	Al	0.829891	-0.502948	0.811669
	O5324	O	0.925587	-0.462727	0.920285
	O5325	O	0.913410	-0.378411	0.875565
	O5326	O	0.913013	-0.128420	0.914497
	O5327	O	0.984262	-0.461604	0.952461
	O5328	O	0.900359	-0.462628	0.919960
	O5329	O	0.840515	-0.462460	0.940186
	O5330	O	0.900354	-0.294170	0.920052
	O5331	O	0.900875	-0.212426	0.869638
	O5332	O	0.842132	-0.212493	0.837113
	O5333	O	0.925507	-0.294464	0.920885
	O5334	O	0.926110	-0.213423	0.870196
	O5335	O	0.985987	-0.210888	0.851203
	O5336	O	0.840503	-0.293869	0.940022
	O5337	O	0.900841	-0.044206	0.869526
	O5338	O	0.842166	-0.044223	0.837256
	O5339	O	0.985867	-0.042573	0.851020
	O5340	O	0.926029	-0.044981	0.870028
	O5341	O	0.984242	-0.293110	0.952511
	O5342	O	0.827962	-0.127936	0.947211
	O5343	O	0.998669	-0.376779	0.845706
	C5344	C	0.960698	-0.287823	0.939253
	C5345	C	0.966810	-0.377598	0.941668
	C5346	C	0.960800	-0.467691	0.938866
	C5347	C	0.949066	-0.468031	0.933749
	C5348	C	0.942975	-0.378210	0.931227
	C5349	C	0.948959	-0.288057	0.934157
	C5350	C	0.930456	-0.378693	0.923717
	C5351	C	0.979343	-0.377510	0.949378
	C5352	C	0.895344	-0.378404	0.922324
	C5353	C	0.882530	-0.378354	0.927474
	C5354	C	0.876395	-0.288303	0.929007
	C5355	C	0.864467	-0.288266	0.931629
	C5356	C	0.858351	-0.378316	0.932865
	C5357	C	0.864483	-0.468186	0.931396
	C5358	C	0.876415	-0.468168	0.928768
	C5359	C	0.845534	-0.378166	0.937966
	C5360	C	0.895928	-0.128232	0.866543
	C5361	C	0.883421	-0.128405	0.858708
	C5362	C	0.877360	-0.038533	0.856097
	C5363	C	0.865594	-0.038574	0.850924
	C5364	C	0.859578	-0.128632	0.848162
	C5365	C	0.865615	-0.218445	0.850775
	C5366	C	0.877387	-0.218409	0.855991
	C5367	C	0.847051	-0.128393	0.840328
	C5368	C	0.931093	-0.128870	0.867876
	C5369	C	0.943910	-0.128401	0.862921
	C5370	C	0.950080	-0.218043	0.861874
	C5371	C	0.962005	-0.217486	0.859587
	C5372	C	0.968073	-0.127398	0.858113
	C5373	C	0.961911	-0.037685	0.859368
	C5374	C	0.949981	-0.038113	0.861611
	C5375	C	0.980869	-0.127043	0.853172
	H5376	H	0.966699	-0.287322	0.859012
	H5377	H	0.945519	-0.288149	0.863042
	H5378	H	0.965198	-0.217633	0.941325
	H5379	H	0.944369	-0.218374	0.932271
	H5380	H	0.913730	-0.378178	0.854848
	H5381	H	0.912644	-0.128276	0.935327
	H5382	H	0.828208	-0.128066	0.926432
	H5383	H	0.998503	-0.376732	0.866472
	H5384	H	0.881901	-0.288633	0.857938
	H5385	H	0.861105	-0.288750	0.848648
	H5386	H	0.859850	-0.218400	0.932587
	H5387	H	0.881005	-0.218417	0.928121
	H5388	H	0.861084	0.031486	0.848947
	H5389	H	0.881884	0.031906	0.858184
	H5390	H	0.881021	-0.538087	0.927679
	H5391	H	0.859869	-0.538071	0.932180
	H5392	H	0.944578	-0.538124	0.931597
	H5393	H	0.965393	-0.537476	0.940649
	H5394	H	0.945305	0.031797	0.862486
	H5395	H	0.966446	0.032655	0.858533
	Al5396	Al	0.913182	-0.003467	0.894970
	Al5397	Al	0.913215	0.246456	0.894909
	Al5398	Al	0.829861	0.247055	0.811739
	Al5399	Al	0.829897	-0.003040	0.811670
	O5400	O	0.925604	0.037343	0.920369
	O5401	O	0.913462	0.121315	0.875501
	O5402	O	0.913003	0.371360	0.914388
	O5403	O	0.984259	0.038787	0.952343
	O5404	O	0.900337	0.037525	0.919899
	O5405	O	0.840530	0.037345	0.940040
	O5406	O	0.900309	0.205843	0.919886
	O5407	O	0.900922	0.287773	0.869413
	O5408	O	0.842161	0.288124	0.837270
	O5409	O	0.925468	0.205538	0.920699
	O5410	O	0.926102	0.287160	0.869979
	O5411	O	0.985981	0.288911	0.851031
	O5412	O	0.840526	0.205752	0.940144
	O5413	O	0.900902	0.456161	0.869411
	O5414	O	0.842221	0.456403	0.837184
	O5415	O	0.985973	0.457233	0.850976
	O5416	O	0.926035	0.455329	0.869881
	O5417	O	0.984198	0.206820	0.952858
	O5418	O	0.827882	0.371978	0.947219
	O5419	O	0.998615	0.123220	0.845610
	C5420	C	0.960660	0.212136	0.939475
	C5421	C	0.966756	0.122550	0.942023
	C5422	C	0.960802	0.032519	0.938917
	C5423	C	0.949035	0.032181	0.933848
	C5424	C	0.942953	0.121848	0.931455
	C5425	C	0.948906	0.211881	0.934399
	C5426	C	0.930431	0.121538	0.923769
	C5427	C	0.979298	0.122925	0.949516
	C5428	C	0.895293	0.121640	0.922076
	C5429	C	0.882491	0.121595	0.927340
	C5430	C	0.876374	0.211532	0.928994
	C5431	C	0.864464	0.211581	0.931687
	C5432	C	0.858346	0.121891	0.932782
	C5433	C	0.864455	0.031882	0.931330
	C5434	C	0.876378	0.031776	0.928642
	C5435	C	0.845539	0.121572	0.938015
	C5436	C	0.895998	0.371926	0.866323
	C5437	C	0.883469	0.371585	0.858659
	C5438	C	0.877423	0.461558	0.856014
	C5439	C	0.865664	0.461432	0.850973
	C5440	C	0.859612	0.371638	0.848248
	C5441	C	0.865676	0.281535	0.850738
	C5442	C	0.877439	0.281658	0.855833
	C5443	C	0.847113	0.371944	0.840433
	C5444	C	0.931130	0.371381	0.867880
	C5445	C	0.943930	0.371973	0.863031
	C5446	C	0.950122	0.282362	0.862054
	C5447	C	0.962057	0.282603	0.859645
	C5448	C	0.968141	0.372669	0.858074
	C5449	C	0.961966	0.462387	0.859170
	C5450	C	0.950016	0.462090	0.861581
	C5451	C	0.980946	0.373053	0.853143
	H5452	H	0.966694	0.212639	0.858838
	H5453	H	0.945562	0.212202	0.863013
	H5454	H	0.965174	0.282070	0.941518
	H5455	H	0.944344	0.281782	0.932676
	H5456	H	0.913810	0.121551	0.854692
	H5457	H	0.912809	0.371340	0.935252
	H5458	H	0.827888	0.372166	0.926667
	H5459	H	0.998231	0.123280	0.866495
	H5460	H	0.881978	0.211672	0.857816
	H5461	H	0.861143	0.211550	0.848901
	H5462	H	0.859831	0.281617	0.932758
	H5463	H	0.880980	0.281562	0.927998
	H5464	H	0.861109	0.531311	0.849195
	H5465	H	0.881937	0.531617	0.858069
	H5466	H	0.880976	-0.038056	0.927396
	H5467	H	0.859849	-0.038027	0.932181
	H5468	H	0.944541	-0.037868	0.931743
	H5469	H	0.965370	-0.037578	0.940560
	H5470	H	0.945376	0.531841	0.862148
	H5471	H	0.966556	0.532533	0.857958
