data_Molecule from HDF5

_cell_length_a		195.522230
_cell_length_b		56.435900
_cell_length_c		13.929565
_cell_angle_alpha	90.000187
_cell_angle_beta	89.991542
_cell_angle_gamma	87.928064
_symmetry_space_group_name_H-M	'P 1'
_symmetry_Int_Tables_number		1

loop_
	_symmetry_equiv_pos_as_xyz
	x,y,z

loop_
	_atom_site_label
	_atom_site_type_symbol
	_atom_site_fract_x
	_atom_site_fract_y
	_atom_site_fract_z
	H0	H	0.008144	0.051369	0.347319
	H1	H	0.072310	0.006853	0.344023
	H2	H	0.044147	0.058142	0.148376
	H3	H	0.108206	0.005541	0.154441
	H4	H	0.044017	0.056683	0.343737
	H5	H	0.108420	0.007516	0.349039
	H6	H	0.008236	0.052074	0.152043
	H7	H	0.072032	0.005406	0.147913
	H8	H	0.044744	0.005321	0.094278
	H9	H	0.107689	0.066478	0.097705
	H10	H	0.009143	-0.004486	0.403239
	H11	H	0.071503	0.059002	0.398012
	H12	H	0.008818	-0.003181	0.098982
	H13	H	0.071632	0.058232	0.093040
	H14	H	0.045072	0.004348	0.398625
	H15	H	0.107357	0.067844	0.402461
	H16	H	0.019834	0.055485	0.348346
	H17	H	0.084193	0.004101	0.346211
	H18	H	0.032370	0.058750	0.147918
	H19	H	0.096592	0.006397	-0.151333
	H20	H	0.032208	0.059478	0.347487
	H21	H	0.096589	0.006459	0.348117
	H22	H	0.020075	0.054450	0.149779
	H23	H	0.084220	0.003999	-0.153238
	H24	H	0.033095	0.000050	0.096910
	H25	H	0.095788	0.063911	0.097185
	H26	H	0.020891	0.000569	0.401033
	H27	H	0.083239	0.060776	0.397607
	H28	H	0.020692	-0.000944	0.098367
	H29	H	0.083379	0.062939	0.095730
	H30	H	0.033255	0.001587	0.399383
	H31	H	0.095658	0.061944	0.399026
	Co32	Co	0.120639	0.094726	0.126288
	Co33	Co	0.058136	0.032196	0.120106
	Co34	Co	-0.004270	-0.030629	0.378757
	Co35	Co	0.058219	0.032042	0.369999
	C36	C	0.006943	0.052347	0.422079
	C37	C	0.071118	0.007987	0.418490
	C38	C	0.045329	0.056568	0.073639
	C39	C	0.109436	0.004718	0.079758
	C40	C	0.045246	0.055708	0.418488
	C41	C	0.109534	0.005602	0.423550
	C42	C	0.006953	0.052676	0.077818
	C43	C	0.070936	0.007240	0.074025
	C44	C	0.045976	0.006518	0.168802
	C45	C	0.108649	0.068210	0.172557
	C46	C	0.007972	-0.005536	0.329164
	C47	C	0.070399	0.057268	0.323517
	C48	C	0.007822	-0.005083	0.173850
	C49	C	0.070459	0.056982	0.167951
	C50	C	0.046122	0.005939	0.324265
	C51	C	0.108483	0.069010	0.327485
	C52	C	0.011378	0.051558	0.499367
	C53	C	0.075453	0.005062	-0.003123
	C54	C	0.040919	0.058782	0.496710
	C55	C	0.105054	0.007498	0.001707
	C56	C	0.041758	0.002651	0.246932
	C57	C	0.104300	0.064985	0.249536
	C58	C	0.012203	-0.001879	0.250848
	C59	C	0.074715	0.060304	0.246065
	C60	C	0.018865	0.053517	0.498943
	C61	C	0.082972	0.004564	-0.001863
	C62	C	0.033397	0.058628	0.497973
	C63	C	0.097558	0.007630	0.000591
	C64	C	0.034295	0.000657	0.247997
	C65	C	0.096840	0.062867	0.248352
	C66	C	0.019666	-0.000071	0.249788
	C67	C	0.082202	0.062021	0.246631
	C68	C	0.022548	0.055770	0.414769
	C69	C	0.086786	0.005011	0.413845
	C70	C	0.029693	0.057732	0.081345
	C71	C	0.093881	0.006380	-0.084413
	C72	C	0.029577	0.058186	0.414602
	C73	C	0.093856	0.006470	0.414734
	C74	C	0.022642	0.055258	0.082338
	C75	C	0.086808	0.004821	-0.085594
	C76	C	0.030478	0.000066	0.164264
	C77	C	0.093093	0.063279	0.163852
	C78	C	0.023499	0.000425	0.333532
	C79	C	0.085936	0.061489	0.331007
	C80	C	0.023390	-0.000361	0.165032
	C81	C	0.086016	0.062754	0.163038
	C82	C	0.030585	0.000867	0.332699
	C83	C	0.093021	0.061996	0.331839
	N84	N	0.000344	0.054877	0.450889
	N85	N	0.064642	0.013153	0.446801
	N86	N	0.051779	0.051434	0.044183
	N87	N	0.115929	-0.000160	0.051344
	N88	N	0.051761	0.050713	0.446804
	N89	N	0.115997	0.000471	0.453449
	N90	N	0.000346	0.054844	0.049630
	N91	N	0.064513	0.012912	0.044013
	N92	N	0.052264	0.012730	0.197162
	N93	N	0.114881	0.074729	0.201962
	N94	N	0.001644	-0.011388	0.301180
	N95	N	0.064072	0.051549	0.294053
	N96	N	0.001555	-0.011075	0.203795
	N97	N	0.064115	0.051305	0.196602
	N98	N	0.052358	0.012366	0.294333
	N99	N	0.114779	0.075165	0.299414
	H100	H	0.008111	0.051157	0.847425
	H101	H	0.072404	0.007710	0.844233
	H102	H	0.044315	0.058098	0.648734
	H103	H	0.108143	0.005474	0.653062
	H104	H	0.044009	0.057202	0.843702
	H105	H	0.108396	0.006621	0.849848
	H106	H	0.008229	0.052078	0.652130
	H107	H	0.072063	0.005545	0.648962
	H108	H	0.044942	0.005142	0.593988
	H109	H	0.107635	0.066518	0.597969
	H110	H	0.009298	-0.004124	0.904996
	H111	H	0.071406	0.059554	0.898509
	H112	H	0.009043	-0.003599	0.599291
	H113	H	0.071772	0.057972	0.593569
	H114	H	0.045180	0.004222	0.898805
	H115	H	0.107355	0.067748	0.902124
	H116	H	0.019871	0.054433	0.847741
	H117	H	0.083914	0.005995	1.149575
	H118	H	0.032410	0.057244	0.648664
	H119	H	0.096306	0.008442	0.650886
	H120	H	0.032160	0.058596	0.846259
	H121	H	0.096297	0.007879	1.152259
	H122	H	0.020055	0.053454	0.649682
	H123	H	0.083966	0.006059	0.649381
	H124	H	0.033171	-0.000371	0.596278
	H125	H	0.095849	0.063476	0.597826
	H126	H	0.020994	-0.000445	0.901394
	H127	H	0.083336	0.061391	0.898974
	H128	H	0.020796	-0.001324	0.599044
	H129	H	0.083459	0.062868	0.596446
	H130	H	0.033371	0.000669	0.899663
	H131	H	0.095721	0.062205	0.900070
	Co132	Co	0.120747	0.094458	0.625484
	Co133	Co	0.058263	0.032213	0.619577
	Co134	Co	-0.004317	-0.029748	0.878869
	Co135	Co	0.058194	0.032547	0.870158
	C136	C	0.006896	0.052155	0.922143
	C137	C	0.071128	0.008584	0.918522
	C138	C	0.045387	0.056452	0.573726
	C139	C	0.109389	0.004538	0.578780
	C140	C	0.045249	0.056056	0.918035
	C141	C	0.109529	0.005195	0.924417
	C142	C	0.006989	0.052733	0.577091
	C143	C	0.070998	0.007449	0.573626
	C144	C	0.046106	0.006352	0.668659
	C145	C	0.108713	0.068332	0.672617
	C146	C	0.008040	-0.005436	0.829888
	C147	C	0.070377	0.057796	0.823576
	C148	C	0.007925	-0.005218	0.674311
	C149	C	0.070567	0.056892	0.667940
	C150	C	0.046234	0.005969	0.823793
	C151	C	0.108546	0.069109	0.827860
	C152	C	0.011406	0.051582	0.999777
	C153	C	0.075471	0.004874	0.496517
	C154	C	0.040860	0.059003	0.996247
	C155	C	0.105055	0.007700	0.500573
	C156	C	0.041871	0.002396	0.746912
	C157	C	0.104345	0.065053	0.749714
	C158	C	0.012309	-0.002223	0.751663
	C159	C	0.074805	0.060625	0.746402
	C160	C	0.018857	0.053519	0.998963
	C161	C	0.082949	0.004682	0.497525
	C162	C	0.033387	0.058841	0.996957
	C163	C	0.097548	0.007769	0.499440
	C164	C	0.034450	0.000128	0.747969
	C165	C	0.096896	0.062899	0.748943
	C166	C	0.019790	-0.000642	0.750429
	C167	C	0.082248	0.062242	0.747586
	C168	C	0.022532	0.055205	0.914583
	C169	C	0.086645	0.005871	1.082921
	C170	C	0.029706	0.056833	0.582082
	C171	C	0.093716	0.007456	0.583190
	C172	C	0.029582	0.057727	0.913516
	C173	C	0.093717	0.007236	1.084287
	C174	C	0.022671	0.054541	0.582625
	C175	C	0.086641	0.006041	0.582153
	C176	C	0.030621	-0.000321	0.664316
	C177	C	0.093150	0.063122	0.664532
	C178	C	0.023625	-0.000356	0.834024
	C179	C	0.085994	0.061758	0.831898
	C180	C	0.023520	-0.000829	0.665568
	C181	C	0.086051	0.062772	0.663989
	C182	C	0.030718	0.000095	0.832623
	C183	C	0.093084	0.062279	0.832737
	N184	N	0.000314	0.054582	0.951244
	N185	N	0.064639	0.013636	0.946707
	N186	N	0.051860	0.051249	0.544017
	N187	N	0.115897	-0.000132	0.550863
	N188	N	0.051727	0.051191	0.946525
	N189	N	0.115994	0.000181	0.953779
	N190	N	0.000374	0.055179	0.549026
	N191	N	0.064552	0.012757	0.544375
	N192	N	0.052351	0.012838	0.696872
	N193	N	0.114925	0.074931	0.702434
	N194	N	0.001686	-0.010949	0.801569
	N195	N	0.064113	0.051906	0.793708
	N196	N	0.001598	-0.010771	0.704322
	N197	N	0.064247	0.051323	0.696125
	N198	N	0.052434	0.012510	0.794376
	N199	N	0.114829	0.075364	0.799581
	H200	H	0.017327	0.260807	0.349450
	H201	H	0.070771	0.114810	0.344129
	H202	H	0.045113	0.176582	0.147295
	H203	H	0.106402	0.119290	0.152514
	H204	H	0.044924	0.176068	0.344738
	H205	H	0.106771	0.120949	0.348591
	H206	H	0.017693	0.261339	0.151957
	H207	H	0.070523	0.113176	0.148405
	H208	H	0.041860	0.117029	0.094293
	H209	H	0.104635	0.178739	0.097824
	H210	H	0.006410	0.104518	0.401882
	H211	H	0.068760	0.167628	0.398531
	H212	H	0.006255	0.104516	0.097495
	H213	H	0.069129	0.165901	0.094719
	H214	H	0.041991	0.116388	0.397625
	H215	H	0.104463	0.180384	0.401024
	H216	H	0.026801	0.234597	0.518946
	H217	H	0.082679	0.115822	0.347155
	H218	H	0.035364	0.202175	-0.063928
	H219	H	0.094651	0.122059	0.149899
	H220	H	0.036400	0.205365	0.517645
	H221	H	0.094972	0.119914	0.348562
	H222	H	0.025835	0.231653	-0.062917
	H223	H	0.082315	0.117934	0.148827
	H224	H	0.030093	0.115801	0.097817
	H225	H	0.092713	0.180418	0.100182
	H226	H	0.017786	0.114862	0.396541
	H227	H	0.080397	0.174360	0.396747
	H228	H	0.017684	0.113309	0.100211
	H229	H	0.080323	0.177700	0.099403
	H230	H	0.030223	0.117042	0.395025
	H231	H	0.092761	0.177080	0.397234
	Co232	Co	0.118808	0.198035	0.124802
	Co233	Co	0.056274	0.135055	0.120058
	Co234	Co	-0.006215	0.072510	0.375135
	Co235	Co	0.056276	0.135255	0.370218
	C236	C	0.016571	0.264026	0.423392
	C237	C	0.069529	0.115368	0.418586
	C238	C	0.045879	0.173389	0.073682
	C239	C	0.107701	0.118248	0.078247
	C240	C	0.045831	0.173338	0.418632
	C241	C	0.107877	0.119175	0.423322
	C242	C	0.016761	0.264386	0.078280
	C243	C	0.069395	0.114505	0.073779
	C244	C	0.043124	0.117325	0.168273
	C245	C	0.105745	0.179588	0.171994
	C246	C	0.005356	0.102542	0.327294
	C247	C	0.067792	0.165263	0.324074
	C248	C	0.005290	0.102569	0.172228
	C249	C	0.067992	0.164366	0.168954
	C250	C	0.043185	0.117108	0.323301
	C251	C	0.105663	0.180348	0.326343
	C252	C	0.020031	0.253549	0.499791
	C253	C	0.073897	0.114003	-0.003232
	C254	C	0.042559	0.184228	0.495977
	C255	C	0.103353	0.121280	-0.000093
	C256	C	0.038754	0.116102	0.246090
	C257	C	0.101309	0.178760	0.248758
	C258	C	0.009382	0.108269	0.249388
	C259	C	0.071968	0.170466	0.246996
	C260	C	0.025715	0.235900	0.498584
	C261	C	0.081349	0.115910	-0.002172
	C262	C	0.036870	0.201879	0.496634
	C263	C	0.095864	0.121065	-0.000913
	C264	C	0.031253	0.115794	0.246640
	C265	C	0.093843	0.178130	0.248522
	C266	C	0.016711	0.113134	0.248571
	C267	C	0.079284	0.175294	0.247768
	C268	C	0.028742	0.227810	0.509832
	C269	C	0.085253	0.117145	0.414354
	C270	C	0.033582	0.209471	-0.036228
	C271	C	0.092067	0.120645	0.082606
	C272	C	0.034158	0.211205	0.508895
	C273	C	0.092286	0.119601	0.415167
	C274	C	0.028199	0.226190	-0.035546
	C275	C	0.085025	0.118126	0.082105
	C276	C	0.027472	0.115380	0.164205
	C277	C	0.090055	0.178840	0.165631
	C278	C	0.020470	0.114801	0.330891
	C279	C	0.083024	0.175712	0.330981
	C280	C	0.020421	0.114068	0.165189
	C281	C	0.082999	0.177482	0.165317
	C282	C	0.027528	0.116151	0.329776
	C283	C	0.090090	0.177108	0.331355
	N284	N	0.011764	0.279870	0.453428
	N285	N	0.062902	0.117642	0.446726
	N286	N	0.050696	0.157503	0.043588
	N287	N	0.114199	0.113464	0.049739
	N288	N	0.050663	0.157501	0.447878
	N289	N	0.114314	0.113793	0.452652
	N290	N	0.011912	0.280183	0.049457
	N291	N	0.062815	0.117273	0.044312
	N292	N	0.049692	0.119336	0.196751
	N293	N	0.112260	0.182085	0.200928
	N294	N	-0.000567	0.093319	0.298628
	N295	N	0.061919	0.155960	0.293941
	N296	N	-0.000591	0.093262	0.202111
	N297	N	0.062048	0.155421	0.197157
	N298	N	0.049718	0.119217	0.294321
	N299	N	0.112206	0.182456	0.298268
	H300	H	0.017581	0.261656	0.849429
	H301	H	0.070787	0.115371	0.843864
	H302	H	0.045119	0.176460	0.646795
	H303	H	0.106565	0.119254	0.653133
	H304	H	0.044754	0.176135	0.845901
	H305	H	0.106684	0.120726	0.848010
	H306	H	0.017829	0.261594	0.651168
	H307	H	0.070677	0.113737	0.648868
	H308	H	0.042021	0.116806	0.594278
	H309	H	0.104539	0.178940	0.598035
	H310	H	0.006607	0.103610	0.901495
	H311	H	0.068672	0.168129	0.898541
	H312	H	0.006274	0.104885	0.597256
	H313	H	0.069101	0.166683	0.594534
	H314	H	0.042138	0.116087	0.897748
	H315	H	0.104392	0.180068	0.901052
	H316	H	0.027177	0.235661	1.062370
	H317	H	0.082575	0.115883	0.846769
	H318	H	0.035825	0.202988	0.475461
	H319	H	0.094674	0.122886	0.649305
	H320	H	0.036673	0.206135	1.060900
	H321	H	0.094876	0.119950	0.847992
	H322	H	0.026253	0.232383	0.476905
	H323	H	0.082321	0.118480	0.647647
	H324	H	0.030261	0.114740	0.598211
	H325	H	0.092699	0.180843	0.601000
	H326	H	0.017903	0.114605	0.896445
	H327	H	0.080282	0.174884	0.896505
	H328	H	0.017857	0.112040	0.599350
	H329	H	0.080283	0.178262	0.599769
	H330	H	0.030347	0.117093	0.894897
	H331	H	0.092652	0.177469	0.897576
	Co332	Co	0.118732	0.198132	0.625367
	Co333	Co	0.056344	0.135301	0.620470
	Co334	Co	-0.006184	0.072589	0.875442
	Co335	Co	0.056294	0.135459	0.870344
	C336	C	0.016700	0.264543	0.923473
	C337	C	0.069520	0.115587	0.918344
	C338	C	0.045918	0.173524	0.572789
	C339	C	0.107784	0.118288	0.578671
	C340	C	0.045706	0.173230	0.919493
	C341	C	0.107836	0.119081	0.922557
	C342	C	0.016822	0.264451	0.577541
	C343	C	0.069471	0.114836	0.573929
	C344	C	0.043233	0.117280	0.668612
	C345	C	0.105709	0.179811	0.672152
	C346	C	0.005498	0.102023	0.827224
	C347	C	0.067747	0.165663	0.824329
	C348	C	0.005351	0.102568	0.671856
	C349	C	0.067926	0.165049	0.668835
	C350	C	0.043284	0.116764	0.823390
	C351	C	0.105620	0.180316	0.827121
	C352	C	0.020049	0.253708	1.000461
	C353	C	0.073954	0.114181	0.496647
	C354	C	0.042466	0.183984	0.997249
	C355	C	0.103432	0.121549	0.500689
	C356	C	0.038866	0.115816	0.746363
	C357	C	0.101248	0.178874	0.749376
	C358	C	0.009521	0.107806	0.749098
	C359	C	0.071919	0.171077	0.747135
	C360	C	0.025728	0.236041	0.999836
	C361	C	0.081426	0.116167	0.497472
	C362	C	0.036799	0.201721	0.998212
	C363	C	0.095941	0.121453	0.499393
	C364	C	0.031373	0.115246	0.746873
	C365	C	0.093774	0.178463	0.748906
	C366	C	0.016850	0.112520	0.747967
	C367	C	0.079220	0.175770	0.748035
	C368	C	0.028940	0.228384	1.034376
	C369	C	0.085156	0.117016	0.914176
	C370	C	0.033860	0.209953	0.485311
	C371	C	0.092108	0.121166	0.582501
	C372	C	0.034315	0.211642	1.033563
	C373	C	0.092197	0.119359	0.914912
	C374	C	0.028426	0.226495	0.486209
	C375	C	0.085066	0.118646	0.581589
	C376	C	0.027599	0.114428	0.664048
	C377	C	0.090015	0.179303	0.666038
	C378	C	0.020568	0.114528	0.830519
	C379	C	0.082939	0.176186	0.831093
	C380	C	0.020543	0.113100	0.664697
	C381	C	0.082934	0.178010	0.665556
	C382	C	0.027625	0.115831	0.829969
	C383	C	0.090008	0.177553	0.831520
	N384	N	0.011876	0.280287	0.953539
	N385	N	0.062910	0.117933	0.946103
	N386	N	0.050717	0.157579	0.543201
	N387	N	0.114259	0.113313	0.550085
	N388	N	0.050569	0.157354	0.947969
	N389	N	0.114290	0.114006	0.952450
	N390	N	0.011910	0.280101	0.549409
	N391	N	0.062874	0.117344	0.544684
	N392	N	0.049794	0.119269	0.696734
	N393	N	0.112240	0.182001	0.701271
	N394	N	-0.000468	0.093199	0.798614
	N395	N	0.061896	0.156314	0.794240
	N396	N	-0.000568	0.093537	0.701853
	N397	N	0.062006	0.155954	0.697517
	N398	N	0.049813	0.119067	0.794408
	N399	N	0.112165	0.182382	0.798624
	H400	H	0.018380	0.379948	0.350028
	H401	H	0.080162	0.324309	0.347593
	H402	H	0.054379	0.385846	0.151814
	H403	H	0.107324	0.238635	0.149805
	H404	H	0.054265	0.385791	0.347633
	H405	H	0.107561	0.239319	0.348761
	H406	H	0.018429	0.380065	0.154533
	H407	H	0.079761	0.322830	0.148786
	H408	H	0.056036	0.332798	0.098024
	H409	H	0.118871	0.394520	0.102335
	H410	H	0.020524	0.320285	0.403268
	H411	H	0.082945	0.384164	0.401210
	H412	H	0.020443	0.321307	0.099978
	H413	H	0.083145	0.381947	0.097924
	H414	H	0.055984	0.333422	0.401618
	H415	H	0.118359	0.396585	0.406488
	H416	H	0.030158	0.379249	0.351425
	H417	H	0.088542	0.294524	0.416589
	H418	H	0.042487	0.382998	-0.150009
	H419	H	0.097733	0.263586	0.124988
	H420	H	0.042515	0.383165	0.350286
	H421	H	0.098123	0.265332	0.417290
	H422	H	0.030139	0.378837	-0.148987
	H423	H	0.088117	0.292783	0.124743
	H424	H	0.044662	0.324107	0.397221
	H425	H	0.107214	0.388447	0.103960
	H426	H	0.032173	0.321012	0.103684
	H427	H	0.094763	0.381610	0.399432
	H428	H	0.032262	0.321734	0.398282
	H429	H	0.094832	0.385909	0.102551
	H430	H	0.044615	0.323571	0.102858
	H431	H	0.107159	0.384217	0.401206
	Co432	Co	0.131258	0.427166	0.130199
	Co433	Co	0.068699	0.364531	0.123911
	Co434	Co	0.006153	0.302350	0.377703
	Co435	Co	0.068725	0.364942	0.373749
	C436	C	0.017210	0.381386	0.424790
	C437	C	0.079230	0.327046	0.421458
	C438	C	0.055555	0.384967	0.077297
	C439	C	0.108300	0.235898	0.076712
	C440	C	0.055536	0.384858	0.422333
	C441	C	0.108359	0.236128	0.422511
	C442	C	0.017200	0.381456	0.080193
	C443	C	0.079038	0.326174	0.075260
	C444	C	0.057104	0.334893	0.172136
	C445	C	0.119774	0.397038	0.176740
	C446	C	0.019298	0.320089	0.329074
	C447	C	0.081765	0.383104	0.327031
	C448	C	0.019258	0.320312	0.174065
	C449	C	0.081871	0.382017	0.172039
	C450	C	0.057070	0.335204	0.327342
	C451	C	0.119530	0.397971	0.332102
	C452	C	0.021648	0.378578	0.502043
	C453	C	0.082478	0.315927	-0.001670
	C454	C	0.051109	0.385661	0.500398
	C455	C	0.105067	0.246794	-0.000377
	C456	C	0.052996	0.329451	0.249855
	C457	C	0.115579	0.391891	0.253886
	C458	C	0.023677	0.321381	0.251285
	C459	C	0.086215	0.383645	0.250066
	C460	C	0.029135	0.378794	0.501619
	C461	C	0.088177	0.298342	-0.001335
	C462	C	0.043654	0.383783	0.500778
	C463	C	0.099365	0.264368	-0.000822
	C464	C	0.045693	0.324676	0.249938
	C465	C	0.108261	0.387060	0.252664
	C466	C	0.031157	0.321904	0.250984
	C467	C	0.093717	0.384128	0.250809
	C468	C	0.032851	0.380033	0.417708
	C469	C	0.090823	0.288887	0.452660
	C470	C	0.039857	0.382216	-0.083291
	C471	C	0.096017	0.271293	0.069554
	C472	C	0.039901	0.382349	0.417307
	C473	C	0.096232	0.272266	0.453025
	C474	C	0.032798	0.379775	-0.082581
	C475	C	0.090582	0.287814	0.069154
	C476	C	0.041996	0.323601	0.332352
	C477	C	0.104543	0.386943	0.169307
	C478	C	0.034896	0.321806	0.168374
	C479	C	0.097446	0.383240	0.334160
	C480	C	0.034935	0.322195	0.332978
	C481	C	0.097486	0.385509	0.168411
	C482	C	0.041963	0.323180	0.168058
	C483	C	0.104509	0.384634	0.335005
	N484	N	0.010745	0.386351	0.454123
	N485	N	0.074412	0.342848	0.450962
	N486	N	0.062129	0.382477	0.048293
	N487	N	0.113165	0.220148	0.047577
	N488	N	0.062141	0.382496	0.450546
	N489	N	0.113177	0.220315	0.452049
	N490	N	0.010723	0.386392	0.051612
	N491	N	0.074263	0.342207	0.045857
	N492	N	0.063020	0.344021	0.201162
	N493	N	0.125626	0.406474	0.206840
	N494	N	0.012761	0.317944	0.300664
	N495	N	0.075240	0.380816	0.297424
	N496	N	0.012725	0.318099	0.203159
	N497	N	0.075315	0.380217	0.200240
	N498	N	0.062998	0.344228	0.297908
	N499	N	0.125486	0.406979	0.303591
	H500	H	0.018336	0.379810	0.850382
	H501	H	0.080244	0.324380	0.847316
	H502	H	0.054384	0.385491	0.652973
	H503	H	0.107277	0.238803	0.650732
	H504	H	0.054259	0.385618	0.847125
	H505	H	0.107606	0.239359	0.848836
	H506	H	0.018467	0.379870	0.654569
	H507	H	0.079899	0.323091	0.649632
	H508	H	0.055993	0.332658	0.598126
	H509	H	0.118804	0.394403	0.602605
	H510	H	0.020545	0.320856	0.904136
	H511	H	0.082939	0.383818	0.901439
	H512	H	0.020543	0.320498	0.600637
	H513	H	0.083083	0.382689	0.598414
	H514	H	0.056112	0.332893	0.901736
	H515	H	0.118339	0.396593	0.906608
	H516	H	0.030310	0.378805	1.152243
	H517	H	0.089865	0.299334	0.871807
	H518	H	0.042615	0.382689	0.651805
	H519	H	0.098909	0.268227	0.580636
	H520	H	0.042581	0.383145	1.151089
	H521	H	0.099416	0.270117	0.872669
	H522	H	0.030281	0.378728	0.652179
	H523	H	0.089363	0.297607	0.579684
	H524	H	0.044652	0.323218	0.602630
	H525	H	0.107198	0.388697	0.604605
	H526	H	0.032354	0.321222	0.899966
	H527	H	0.094756	0.381307	0.899344
	H528	H	0.032228	0.320717	0.603612
	H529	H	0.094812	0.386131	0.602718
	H530	H	0.044775	0.323684	0.898862
	H531	H	0.107138	0.383772	0.900667
	Co532	Co	0.131201	0.427085	0.629939
	Co533	Co	0.068701	0.364485	0.624036
	Co534	Co	0.006187	0.302450	0.877052
	Co535	Co	0.068677	0.364805	0.873871
	C536	C	0.017125	0.381202	0.924680
	C537	C	0.079273	0.327034	0.921110
	C538	C	0.055590	0.384645	0.577923
	C539	C	0.108226	0.235874	0.576751
	C540	C	0.055505	0.384884	0.921764
	C541	C	0.108424	0.236272	0.922563
	C542	C	0.017241	0.381201	0.580208
	C543	C	0.079109	0.326479	0.575870
	C544	C	0.057091	0.334731	0.671993
	C545	C	0.119740	0.396968	0.677220
	C546	C	0.019294	0.320321	0.829883
	C547	C	0.081722	0.383011	0.827513
	C548	C	0.019311	0.320083	0.674807
	C549	C	0.081804	0.382406	0.672381
	C550	C	0.057164	0.334712	0.827134
	C551	C	0.119508	0.397987	0.832374
	C552	C	0.021617	0.378611	1.001961
	C553	C	0.082489	0.316001	0.498606
	C554	C	0.051048	0.385944	0.999545
	C555	C	0.104956	0.246663	0.499417
	C556	C	0.053034	0.329062	0.749876
	C557	C	0.115519	0.391737	0.754183
	C558	C	0.023737	0.321144	0.752171
	C559	C	0.086203	0.383855	0.750388
	C560	C	0.029102	0.378673	1.001492
	C561	C	0.088172	0.298398	0.498497
	C562	C	0.043619	0.383993	1.000112
	C563	C	0.099305	0.264342	0.499076
	C564	C	0.045747	0.324185	0.750609
	C565	C	0.108234	0.386916	0.752841
	C566	C	0.031210	0.321458	0.751867
	C567	C	0.093675	0.384266	0.751130
	C568	C	0.032883	0.379786	1.084923
	C569	C	0.091531	0.291488	0.927817
	C570	C	0.039956	0.382124	0.584847
	C571	C	0.096671	0.273949	0.544617
	C572	C	0.039937	0.382327	1.084320
	C573	C	0.096958	0.274968	0.927999
	C574	C	0.032910	0.379791	0.585287
	C575	C	0.091246	0.290507	0.544384
	C576	C	0.041988	0.322849	0.668214
	C577	C	0.104510	0.387080	0.669674
	C578	C	0.034988	0.321689	0.834205
	C579	C	0.097406	0.383000	0.833972
	C580	C	0.034917	0.321497	0.668717
	C581	C	0.097440	0.385687	0.668784
	C582	C	0.042063	0.323048	0.833810
	C583	C	0.104492	0.384333	0.834830
	N584	N	0.010671	0.386282	0.954045
	N585	N	0.074371	0.342612	0.950347
	N586	N	0.062178	0.382404	0.548549
	N587	N	0.113101	0.220167	0.547747
	N588	N	0.062088	0.382391	0.950096
	N589	N	0.113233	0.220379	0.951793
	N590	N	0.010746	0.386151	0.551608
	N591	N	0.074331	0.342467	0.546612
	N592	N	0.063008	0.343895	0.700686
	N593	N	0.125610	0.406267	0.707149
	N594	N	0.012750	0.318393	0.801163
	N595	N	0.075209	0.380741	0.798104
	N596	N	0.012774	0.318185	0.703643
	N597	N	0.075263	0.380386	0.700610
	N598	N	0.063045	0.343924	0.797349
	N599	N	0.125458	0.406865	0.803780
	H600	H	0.016543	0.493042	0.351213
	H601	H	0.080964	0.443347	0.345582
	H602	H	0.052941	0.493835	0.150402
	H603	H	0.116707	0.447090	0.155715
	H604	H	0.052667	0.493403	0.346642
	H605	H	0.116883	0.449355	0.351457
	H606	H	0.016960	0.494398	0.155454
	H607	H	0.080763	0.441454	0.150300
	H608	H	0.053322	0.441424	0.096192
	H609	H	0.116133	0.503099	0.101781
	H610	H	0.017647	0.432347	0.403913
	H611	H	0.079827	0.496506	0.399840
	H612	H	0.017391	0.433330	0.100064
	H613	H	0.080286	0.494102	0.096257
	H614	H	0.053466	0.441337	0.400754
	H615	H	0.115829	0.504406	0.406867
	H616	H	0.028393	0.493047	0.350854
	H617	H	0.092489	0.443579	0.650616
	H618	H	0.041125	0.494775	0.151132
	H619	H	0.104938	0.447164	0.151992
	H620	H	0.040778	0.495332	0.348524
	H621	H	0.104800	0.447452	0.652807
	H622	H	0.028751	0.492773	0.152695
	H623	H	0.092626	0.443348	0.150670
	H624	H	0.041711	0.438252	0.400949
	H625	H	0.104046	0.498874	0.403997
	H626	H	0.029233	0.436859	0.099349
	H627	H	0.091895	0.500785	0.098808
	H628	H	0.029361	0.437349	0.402076
	H629	H	0.091665	0.498189	0.401424
	H630	H	0.041608	0.437969	0.098692
	H631	H	0.104271	0.501673	0.100940
	Co632	Co	0.129330	0.530031	0.129970
	Co633	Co	0.066841	0.467520	0.121837
	Co634	Co	0.004319	0.405396	0.378823
	Co635	Co	0.066791	0.468043	0.372227
	C636	C	0.015457	0.494731	0.425978
	C637	C	0.079754	0.444310	0.420357
	C638	C	0.054064	0.492305	0.075901
	C639	C	0.118032	0.446953	0.081272
	C640	C	0.053903	0.492131	0.420920
	C641	C	0.118061	0.448009	0.426270
	C642	C	0.015709	0.495469	0.080755
	C643	C	0.079643	0.443325	0.075696
	C644	C	0.054520	0.442883	0.170643
	C645	C	0.117147	0.504741	0.176852
	C646	C	0.016444	0.431208	0.329430
	C647	C	0.078828	0.494377	0.325348
	C648	C	0.016339	0.431450	0.174328
	C649	C	0.079042	0.493340	0.170241
	C650	C	0.054586	0.442872	0.326180
	C651	C	0.116996	0.505555	0.331932
	C652	C	0.019936	0.492442	0.503023
	C653	C	0.084161	0.441152	-0.001106
	C654	C	0.049544	0.495048	0.498861
	C655	C	0.113624	0.448413	0.002825
	C656	C	0.050226	0.439605	0.248834
	C657	C	0.112771	0.501909	0.254013
	C658	C	0.020715	0.435030	0.251491
	C659	C	0.083204	0.497569	0.248555
	C660	C	0.027436	0.492263	0.502046
	C661	C	0.091645	0.441199	0.000402
	C662	C	0.042039	0.495312	0.499922
	C663	C	0.106175	0.446364	0.001778
	C664	C	0.042780	0.437955	0.249586
	C665	C	0.105309	0.500220	0.252673
	C666	C	0.028140	0.437261	0.250910
	C667	C	0.090671	0.499683	0.250063
	C668	C	0.031119	0.493354	0.417450
	C669	C	0.095223	0.443591	0.584557
	C670	C	0.038421	0.494559	0.084278
	C671	C	0.102366	0.445651	0.084958
	C672	C	0.038191	0.494803	0.416270
	C673	C	0.102256	0.445826	0.585771
	C674	C	0.031363	0.493269	0.085240
	C675	C	0.095308	0.443320	0.084329
	C676	C	0.039042	0.437911	0.334008
	C677	C	0.101462	0.499373	0.336241
	C678	C	0.031874	0.437350	0.166511
	C679	C	0.094507	0.500487	0.166390
	C680	C	0.031946	0.437574	0.334469
	C681	C	0.094378	0.499050	0.334817
	C682	C	0.038976	0.437847	0.165845
	C683	C	0.101583	0.500874	0.167717
	N684	N	0.009006	0.500019	0.455664
	N685	N	0.073234	0.449099	0.448477
	N686	N	0.060516	0.486997	0.046357
	N687	N	0.124644	0.444790	0.053461
	N688	N	0.060382	0.486951	0.448839
	N689	N	0.124662	0.445433	0.455868
	N690	N	0.009190	0.500077	0.052805
	N691	N	0.073190	0.448408	0.045903
	N692	N	0.060847	0.448622	0.199148
	N693	N	0.123438	0.510647	0.206340
	N694	N	0.010202	0.424823	0.301302
	N695	N	0.072623	0.487679	0.295549
	N696	N	0.010129	0.424935	0.204057
	N697	N	0.072754	0.487040	0.198488
	N698	N	0.060886	0.448574	0.296543
	N699	N	0.123339	0.511118	0.303992
	H700	H	0.016649	0.493485	0.851405
	H701	H	0.081100	0.443640	0.846307
	H702	H	0.052921	0.493896	0.651007
	H703	H	0.116678	0.447111	0.656312
	H704	H	0.052790	0.493417	0.846219
	H705	H	0.116980	0.449488	0.850864
	H706	H	0.016815	0.494455	0.655251
	H707	H	0.080661	0.441911	0.650443
	H708	H	0.053368	0.441317	0.596154
	H709	H	0.116024	0.502871	0.601186
	H710	H	0.017630	0.432610	0.904161
	H711	H	0.079848	0.496576	0.899660
	H712	H	0.017405	0.433186	0.600072
	H713	H	0.080174	0.494778	0.595713
	H714	H	0.053534	0.441226	0.901114
	H715	H	0.115664	0.504879	0.906125
	H716	H	0.028512	0.493418	0.849658
	H717	H	0.092955	0.439429	0.850111
	H718	H	0.041013	0.494554	0.651696
	H719	H	0.105217	0.443639	0.351986
	H720	H	0.040921	0.495295	0.847953
	H721	H	0.105230	0.443630	0.851478
	H722	H	0.028653	0.492299	0.653201
	H723	H	0.092899	0.439555	0.350138
	H724	H	0.041594	0.437383	0.598537
	H725	H	0.104148	0.502580	0.600522
	H726	H	0.029308	0.437417	0.902003
	H727	H	0.091606	0.498115	0.900828
	H728	H	0.029189	0.436580	0.599966
	H729	H	0.091754	0.501543	0.598717
	H730	H	0.041737	0.438397	0.901234
	H731	H	0.103980	0.498721	0.902866
	Co732	Co	0.129277	0.529962	0.629966
	Co733	Co	0.066801	0.467699	0.621769
	Co734	Co	0.004311	0.405624	0.878733
	Co735	Co	0.066845	0.467886	0.872092
	C736	C	0.015559	0.494935	0.925931
	C737	C	0.079824	0.444331	0.920562
	C738	C	0.053997	0.492360	0.576018
	C739	C	0.117950	0.446829	0.581861
	C740	C	0.053983	0.492042	0.920767
	C741	C	0.118160	0.448160	0.925698
	C742	C	0.015600	0.495397	0.581233
	C743	C	0.079604	0.443486	0.575678
	C744	C	0.054530	0.442775	0.670665
	C745	C	0.117104	0.504828	0.675871
	C746	C	0.016445	0.431278	0.830024
	C747	C	0.078773	0.494328	0.825289
	C748	C	0.016363	0.431436	0.674983
	C749	C	0.078929	0.493533	0.670117
	C750	C	0.054608	0.442720	0.826250
	C751	C	0.116903	0.505842	0.831796
	C752	C	0.020045	0.492761	1.002682
	C753	C	0.084079	0.441220	0.498745
	C754	C	0.049624	0.495036	0.998650
	C755	C	0.113574	0.448303	0.503682
	C756	C	0.050271	0.439507	0.748980
	C757	C	0.112645	0.502202	0.753122
	C758	C	0.020686	0.435026	0.752191
	C759	C	0.083145	0.497689	0.748216
	C760	C	0.027543	0.492686	1.001333
	C761	C	0.091589	0.441342	0.500319
	C762	C	0.042107	0.495501	0.999415
	C763	C	0.106097	0.446396	0.502601
	C764	C	0.042797	0.437885	0.749875
	C765	C	0.105208	0.500593	0.751886
	C766	C	0.028151	0.437232	0.751059
	C767	C	0.090581	0.499829	0.749614
	C768	C	0.031230	0.493646	0.916260
	C769	C	0.095491	0.441224	0.917227
	C770	C	0.038326	0.494247	0.584736
	C771	C	0.102488	0.443677	0.418177
	C772	C	0.038297	0.494948	0.915320
	C773	C	0.102530	0.443723	0.917839
	C774	C	0.031259	0.492879	0.585699
	C775	C	0.095457	0.441307	0.417099
	C776	C	0.038976	0.437528	0.666009
	C777	C	0.101486	0.501479	0.667371
	C778	C	0.031973	0.437572	0.834769
	C779	C	0.094298	0.499163	0.834176
	C780	C	0.031891	0.437155	0.666544
	C781	C	0.094388	0.500951	0.666083
	C782	C	0.039057	0.437957	0.834275
	C783	C	0.101400	0.499516	0.835237
	N784	N	0.009083	0.499743	0.955563
	N785	N	0.073324	0.449080	0.948502
	N786	N	0.060435	0.487071	0.546523
	N787	N	0.124567	0.444688	0.554010
	N788	N	0.060472	0.486842	0.949168
	N789	N	0.124729	0.445486	0.955433
	N790	N	0.009088	0.500265	0.552840
	N791	N	0.073154	0.448640	0.545911
	N792	N	0.060871	0.448493	0.698964
	N793	N	0.123400	0.510537	0.705887
	N794	N	0.010162	0.424990	0.801548
	N795	N	0.072568	0.487727	0.795457
	N796	N	0.010133	0.424936	0.704567
	N797	N	0.072666	0.487259	0.698376
	N798	N	0.060912	0.448444	0.796550
	N799	N	0.123251	0.511234	0.803505
	H800	H	0.014809	0.605405	0.351058
	H801	H	0.079367	0.557475	0.345386
	H802	H	0.051275	0.607567	0.148873
	H803	H	0.115165	0.555258	0.156492
	H804	H	0.050866	0.605947	0.345719
	H805	H	0.115479	0.557106	0.351644
	H806	H	0.015087	0.606334	0.155724
	H807	H	0.079126	0.555591	0.150510
	H808	H	0.051735	0.554906	0.095232
	H809	H	0.114645	0.615799	0.101875
	H810	H	0.016088	0.545614	0.404750
	H811	H	0.078360	0.609546	0.400684
	H812	H	0.015817	0.546426	0.101331
	H813	H	0.078721	0.607895	0.095159
	H814	H	0.052101	0.553653	0.399855
	H815	H	0.114302	0.617284	0.406361
	H816	H	0.026648	0.605854	0.349643
	H817	H	0.091221	0.553858	0.348464
	H818	H	0.039367	0.607256	0.150773
	H819	H	0.103332	0.558681	0.153298
	H820	H	0.039036	0.608110	0.347842
	H821	H	0.103570	0.555904	0.350359
	H822	H	0.026999	0.604683	0.152797
	H823	H	0.090945	0.556570	0.151338
	H824	H	0.040027	0.550307	0.097850
	H825	H	0.102817	0.613961	0.100687
	H826	H	0.027885	0.550169	0.403249
	H827	H	0.090156	0.610947	0.401473
	H828	H	0.027626	0.549615	0.099750
	H829	H	0.090397	0.613252	0.098381
	H830	H	0.040264	0.550682	0.400970
	H831	H	0.102590	0.611836	0.403751
	Co832	Co	0.127645	0.644186	0.130746
	Co833	Co	0.065242	0.581634	0.120951
	Co834	Co	0.002595	0.519285	0.379979
	Co835	Co	0.065133	0.581932	0.371408
	C836	C	0.013677	0.607167	0.425631
	C837	C	0.078152	0.558303	0.419910
	C838	C	0.052334	0.605709	0.074175
	C839	C	0.116427	0.554275	0.081951
	C840	C	0.052122	0.604957	0.420223
	C841	C	0.116547	0.555251	0.426345
	C842	C	0.013860	0.607537	0.081319
	C843	C	0.078045	0.557228	0.075417
	C844	C	0.052962	0.556177	0.169785
	C845	C	0.115674	0.617710	0.176843
	C846	C	0.014896	0.544337	0.330460
	C847	C	0.077288	0.607503	0.325621
	C848	C	0.014769	0.544846	0.175686
	C849	C	0.077471	0.606812	0.169849
	C850	C	0.053120	0.555546	0.325228
	C851	C	0.115498	0.618539	0.332233
	C852	C	0.018178	0.605001	0.502835
	C853	C	0.082496	0.555013	-0.001606
	C854	C	0.047735	0.607668	0.498572
	C855	C	0.112099	0.557493	0.003442
	C856	C	0.048745	0.552160	0.247853
	C857	C	0.111268	0.614509	0.253921
	C858	C	0.019144	0.548096	0.252551
	C859	C	0.081709	0.610464	0.248569
	C860	C	0.025658	0.604822	0.501564
	C861	C	0.089997	0.554801	-0.000116
	C862	C	0.040245	0.607806	0.499592
	C863	C	0.104574	0.557805	0.002160
	C864	C	0.041273	0.550217	0.249149
	C865	C	0.103815	0.612656	0.252414
	C866	C	0.026614	0.549887	0.251563
	C867	C	0.089168	0.612152	0.249722
	C868	C	0.029356	0.606002	0.416724
	C869	C	0.093795	0.554908	0.416143
	C870	C	0.036662	0.607044	0.083889
	C871	C	0.100746	0.557743	0.085792
	C872	C	0.036440	0.607386	0.415612
	C873	C	0.100865	0.556292	0.417249
	C874	C	0.029591	0.605480	0.085158
	C875	C	0.093684	0.556345	0.084867
	C876	C	0.037409	0.550116	0.165598
	C877	C	0.100109	0.613125	0.167417
	C878	C	0.030461	0.550107	0.335411
	C879	C	0.092869	0.611619	0.334690
	C880	C	0.030320	0.549857	0.166754
	C881	C	0.093003	0.612851	0.166026
	C882	C	0.037556	0.550307	0.334183
	C883	C	0.099971	0.612020	0.336019
	N884	N	0.007228	0.612303	0.455731
	N885	N	0.071628	0.563103	0.447528
	N886	N	0.058780	0.600455	0.044587
	N887	N	0.122930	0.549148	0.053488
	N888	N	0.058618	0.600390	0.448340
	N889	N	0.122979	0.549710	0.456133
	N890	N	0.007363	0.612422	0.053026
	N891	N	0.071583	0.562344	0.045715
	N892	N	0.059266	0.562412	0.197965
	N893	N	0.121891	0.624228	0.206800
	N894	N	0.008604	0.538294	0.302545
	N895	N	0.071021	0.601436	0.295591
	N896	N	0.008545	0.538513	0.205204
	N897	N	0.071126	0.601053	0.197898
	N898	N	0.059346	0.562103	0.295228
	N899	N	0.121780	0.624667	0.304195
	H900	H	0.014889	0.605735	0.850744
	H901	H	0.079414	0.557016	0.845312
	H902	H	0.051091	0.606795	0.650466
	H903	H	0.115136	0.555121	0.655885
	H904	H	0.050933	0.605706	0.844763
	H905	H	0.115482	0.557004	0.851436
	H906	H	0.015119	0.606910	0.655587
	H907	H	0.078993	0.555267	0.649299
	H908	H	0.051665	0.554361	0.594862
	H909	H	0.114472	0.615767	0.601849
	H910	H	0.015964	0.546019	0.905085
	H911	H	0.078163	0.609377	0.899189
	H912	H	0.015709	0.546622	0.600948
	H913	H	0.078476	0.608173	0.595111
	H914	H	0.052022	0.553414	0.899440
	H915	H	0.114098	0.617563	0.907093
	H916	H	0.026673	0.605563	0.849367
	H917	H	0.091255	0.553516	0.849041
	H918	H	0.039263	0.606435	0.651443
	H919	H	0.103268	0.558695	0.652973
	H920	H	0.039050	0.608058	0.846961
	H921	H	0.103633	0.555778	0.851207
	H922	H	0.026882	0.604432	0.653344
	H923	H	0.090891	0.556830	0.651514
	H924	H	0.040189	0.550754	0.900726
	H925	H	0.102637	0.614422	0.600645
	H926	H	0.027536	0.549567	0.599486
	H927	H	0.089953	0.611065	0.901172
	H928	H	0.027776	0.550239	0.902979
	H929	H	0.090234	0.613753	0.598050
	H930	H	0.039927	0.549932	0.597256
	H931	H	0.102372	0.611860	0.903584
	Co932	Co	0.127611	0.643483	0.630433
	Co933	Co	0.065058	0.581410	0.620534
	Co934	Co	0.002647	0.518718	0.879848
	Co935	Co	0.065132	0.581063	0.870817
	C936	C	0.013761	0.607316	0.925709
	C937	C	0.078185	0.557884	0.920103
	C938	C	0.052238	0.605525	0.575769
	C939	C	0.116394	0.554262	0.581628
	C940	C	0.052174	0.604828	0.919049
	C941	C	0.116579	0.555112	0.926209
	C942	C	0.013827	0.607944	0.581205
	C943	C	0.077967	0.557317	0.575094
	C944	C	0.052856	0.555776	0.669248
	C945	C	0.115520	0.617653	0.676602
	C946	C	0.014812	0.544509	0.830750
	C947	C	0.077103	0.607480	0.824975
	C948	C	0.014681	0.544987	0.675821
	C949	C	0.077269	0.606889	0.669506
	C950	C	0.053037	0.555097	0.824608
	C951	C	0.115333	0.618620	0.832208
	C952	C	0.018234	0.604827	1.002882
	C953	C	0.082446	0.555131	0.498327
	C954	C	0.047828	0.607993	0.997209
	C955	C	0.112059	0.557601	0.503356
	C956	C	0.048649	0.551954	0.747550
	C957	C	0.111088	0.614728	0.753707
	C958	C	0.019042	0.548297	0.752642
	C959	C	0.081531	0.610706	0.747876
	C960	C	0.025741	0.604802	1.001486
	C961	C	0.089939	0.554970	0.499872
	C962	C	0.040339	0.608128	0.998618
	C963	C	0.104532	0.557906	0.501936
	C964	C	0.041176	0.550215	0.748803
	C965	C	0.103636	0.612968	0.752220
	C966	C	0.026519	0.550128	0.751416
	C967	C	0.088977	0.612535	0.749505
	C968	C	0.029403	0.605842	0.916168
	C969	C	0.093854	0.554723	0.916327
	C970	C	0.036556	0.606578	0.584490
	C971	C	0.100676	0.557903	0.585457
	C972	C	0.036487	0.607365	0.914874
	C973	C	0.100913	0.556136	0.917768
	C974	C	0.029469	0.605226	0.585670
	C975	C	0.093618	0.556496	0.584723
	C976	C	0.037469	0.550449	0.833915
	C977	C	0.099929	0.613634	0.667305
	C978	C	0.030236	0.549800	0.666520
	C979	C	0.092672	0.611862	0.834544
	C980	C	0.030379	0.550271	0.835113
	C981	C	0.092814	0.613390	0.665985
	C982	C	0.037327	0.549960	0.665148
	C983	C	0.099780	0.612181	0.835912
	N984	N	0.007306	0.612324	0.955580
	N985	N	0.071678	0.562635	0.947797
	N986	N	0.058682	0.600693	0.545720
	N987	N	0.122885	0.549137	0.553665
	N988	N	0.058686	0.599993	0.947009
	N989	N	0.123018	0.549565	0.956212
	N990	N	0.007315	0.612699	0.553077
	N991	N	0.071520	0.562550	0.545192
	N992	N	0.059167	0.561858	0.697368
	N993	N	0.121770	0.623844	0.706343
	N994	N	0.008511	0.538325	0.802758
	N995	N	0.070882	0.601136	0.794909
	N996	N	0.008440	0.538575	0.705494
	N997	N	0.070994	0.600785	0.697570
	N998	N	0.059270	0.561524	0.794558
	N999	N	0.121641	0.624502	0.803980
	H1000	H	0.013068	0.718565	0.350644
	H1001	H	0.077634	0.669108	0.345775
	H1002	H	0.049423	0.719788	0.148905
	H1003	H	0.113330	0.668016	0.155827
	H1004	H	0.049253	0.718587	0.344708
	H1005	H	0.113723	0.669843	0.351674
	H1006	H	0.013281	0.719044	0.155032
	H1007	H	0.077191	0.667855	0.149252
	H1008	H	0.049886	0.667425	0.095243
	H1009	H	0.112934	0.728472	0.101369
	H1010	H	0.014276	0.657773	0.404930
	H1011	H	0.076610	0.721514	0.399129
	H1012	H	0.013954	0.658975	0.101177
	H1013	H	0.076919	0.720435	0.094859
	H1014	H	0.050274	0.665738	0.399167
	H1015	H	0.112580	0.729690	0.406171
	H1016	H	0.025024	0.717550	0.348784
	H1017	H	0.089503	0.666397	0.348332
	H1018	H	0.037504	0.719185	0.150178
	H1019	H	0.101475	0.671316	0.153168
	H1020	H	0.037322	0.719747	0.346388
	H1021	H	0.101891	0.668656	0.350644
	H1022	H	0.025140	0.717034	0.152991
	H1023	H	0.089062	0.668765	0.150839
	H1024	H	0.038457	0.663345	0.401048
	H1025	H	0.101044	0.726125	0.099821
	H1026	H	0.025805	0.661882	0.099065
	H1027	H	0.088363	0.723657	0.400747
	H1028	H	0.026045	0.662525	0.402807
	H1029	H	0.088644	0.725386	0.097542
	H1030	H	0.038200	0.662560	0.097220
	H1031	H	0.100797	0.724530	0.403320
	Co1032	Co	0.125885	0.756307	0.129708
	Co1033	Co	0.063332	0.694242	0.120318
	Co1034	Co	0.000828	0.631277	0.380200
	Co1035	Co	0.063451	0.693748	0.370675
	C1036	C	0.012048	0.719936	0.425797
	C1037	C	0.076415	0.670161	0.419456
	C1038	C	0.050456	0.718146	0.074089
	C1039	C	0.114548	0.667212	0.081481
	C1040	C	0.050493	0.717309	0.419316
	C1041	C	0.114798	0.668139	0.426425
	C1042	C	0.012046	0.720004	0.080607
	C1043	C	0.076132	0.669548	0.074646
	C1044	C	0.051111	0.668670	0.169394
	C1045	C	0.113867	0.730232	0.176435
	C1046	C	0.013109	0.656516	0.330795
	C1047	C	0.075545	0.719727	0.324390
	C1048	C	0.012945	0.657001	0.175890
	C1049	C	0.075699	0.719125	0.169159
	C1050	C	0.051298	0.667844	0.324560
	C1051	C	0.113723	0.730867	0.331561
	C1052	C	0.016516	0.717371	0.502706
	C1053	C	0.080615	0.667308	-0.002379
	C1054	C	0.046134	0.720312	0.497247
	C1055	C	0.110249	0.670219	0.002946
	C1056	C	0.046907	0.664659	0.247597
	C1057	C	0.109506	0.727101	0.253501
	C1058	C	0.017333	0.660396	0.252622
	C1059	C	0.079905	0.722730	0.247485
	C1060	C	0.024010	0.717372	0.501208
	C1061	C	0.088146	0.667117	-0.001105
	C1062	C	0.038611	0.720367	0.498354
	C1063	C	0.102730	0.670220	0.001295
	C1064	C	0.039449	0.662811	0.248885
	C1065	C	0.102035	0.725116	0.251938
	C1066	C	0.024790	0.662444	0.251156
	C1067	C	0.087410	0.724560	0.248988
	C1068	C	0.027710	0.718079	0.415926
	C1069	C	0.092099	0.667491	0.415800
	C1070	C	0.034764	0.719026	0.083636
	C1071	C	0.098869	0.670218	0.085282
	C1072	C	0.034767	0.719433	0.414624
	C1073	C	0.099162	0.668852	0.417330
	C1074	C	0.027711	0.717631	0.084970
	C1075	C	0.091812	0.668750	0.084075
	C1076	C	0.035748	0.662945	0.334025
	C1077	C	0.098330	0.725441	0.166614
	C1078	C	0.028505	0.662334	0.166173
	C1079	C	0.091105	0.724158	0.334199
	C1080	C	0.028639	0.662697	0.334963
	C1081	C	0.091254	0.725151	0.165181
	C1082	C	0.035604	0.662506	0.165105
	C1083	C	0.098182	0.724543	0.335515
	N1084	N	0.005582	0.724843	0.455387
	N1085	N	0.069900	0.674962	0.447110
	N1086	N	0.056920	0.713114	0.044401
	N1087	N	0.121078	0.662530	0.053664
	N1088	N	0.057001	0.712433	0.447595
	N1089	N	0.121250	0.662954	0.456265
	N1090	N	0.005542	0.725137	0.052563
	N1091	N	0.069667	0.674892	0.044544
	N1092	N	0.057406	0.674799	0.197352
	N1093	N	0.120134	0.736465	0.206049
	N1094	N	0.006806	0.650419	0.302918
	N1095	N	0.069267	0.713599	0.294711
	N1096	N	0.006711	0.650660	0.205632
	N1097	N	0.069362	0.713236	0.197364
	N1098	N	0.057534	0.674263	0.294713
	N1099	N	0.120033	0.736914	0.303545
	H1100	H	0.012994	0.718378	0.850392
	H1101	H	0.077533	0.669368	0.844421
	H1102	H	0.049453	0.719578	0.649038
	H1103	H	0.113409	0.668084	0.656739
	H1104	H	0.049094	0.718340	0.844382
	H1105	H	0.113676	0.669976	0.851452
	H1106	H	0.013365	0.718585	0.655817
	H1107	H	0.077289	0.667817	0.649421
	H1108	H	0.049953	0.667067	0.595123
	H1109	H	0.112863	0.727902	0.601460
	H1110	H	0.014362	0.658069	0.905963
	H1111	H	0.076475	0.722057	0.899308
	H1112	H	0.014065	0.658987	0.601184
	H1113	H	0.076886	0.720419	0.594949
	H1114	H	0.050244	0.666086	0.899333
	H1115	H	0.112390	0.730129	0.905799
	H1116	H	0.024853	0.718063	0.849040
	H1117	H	0.089390	0.666270	0.847404
	H1118	H	0.037636	0.720013	0.650377
	H1119	H	0.101527	0.671169	0.653610
	H1120	H	0.037213	0.720222	0.847144
	H1121	H	0.101797	0.668574	0.849512
	H1122	H	0.025274	0.717797	0.653024
	H1123	H	0.089152	0.668580	0.650934
	H1124	H	0.038213	0.662630	0.596322
	H1125	H	0.100926	0.726872	0.599608
	H1126	H	0.026108	0.662476	0.903089
	H1127	H	0.088313	0.723698	0.901149
	H1128	H	0.025818	0.661819	0.598992
	H1129	H	0.088559	0.726126	0.597458
	H1130	H	0.038479	0.663313	0.900665
	H1131	H	0.100695	0.724605	0.903276
	Co1132	Co	0.125906	0.755907	0.629662
	Co1133	Co	0.063392	0.693684	0.620708
	Co1134	Co	0.000904	0.631464	0.879993
	Co1135	Co	0.063317	0.694102	0.870650
	C1136	C	0.011915	0.719763	0.925118
	C1137	C	0.076299	0.670505	0.919671
	C1138	C	0.050588	0.717917	0.574481
	C1139	C	0.114654	0.667269	0.581928
	C1140	C	0.050294	0.717246	0.918955
	C1141	C	0.114732	0.668202	0.926223
	C1142	C	0.012163	0.719903	0.580979
	C1143	C	0.076247	0.669537	0.574471
	C1144	C	0.051179	0.668364	0.669431
	C1145	C	0.113834	0.730066	0.676274
	C1146	C	0.013119	0.656873	0.831226
	C1147	C	0.075439	0.720064	0.824545
	C1148	C	0.012951	0.657500	0.675688
	C1149	C	0.075638	0.719214	0.669407
	C1150	C	0.051303	0.667921	0.824836
	C1151	C	0.113622	0.731170	0.831148
	C1152	C	0.016364	0.717224	1.002273
	C1153	C	0.080725	0.667276	0.497740
	C1154	C	0.045976	0.720177	0.997252
	C1155	C	0.110322	0.670273	0.503458
	C1156	C	0.046905	0.664710	0.747446
	C1157	C	0.109410	0.727111	0.753160
	C1158	C	0.017375	0.660676	0.752679
	C1159	C	0.079853	0.723080	0.747706
	C1160	C	0.023872	0.717102	1.001184
	C1161	C	0.088241	0.667138	0.499407
	C1162	C	0.038463	0.720238	0.998597
	C1163	C	0.102815	0.670302	0.502139
	C1164	C	0.039471	0.662942	0.748403
	C1165	C	0.101949	0.725280	0.751593
	C1166	C	0.024821	0.662507	0.751241
	C1167	C	0.087309	0.724967	0.749272
	C1168	C	0.027556	0.718169	0.916086
	C1169	C	0.091996	0.667300	0.915211
	C1170	C	0.034927	0.719510	0.583503
	C1171	C	0.098973	0.670035	0.585880
	C1172	C	0.034615	0.719621	0.914883
	C1173	C	0.099051	0.668648	0.916256
	C1174	C	0.027860	0.718139	0.584971
	C1175	C	0.091915	0.668548	0.584591
	C1176	C	0.035638	0.662578	0.664504
	C1177	C	0.098229	0.725812	0.666414
	C1178	C	0.028675	0.662671	0.835127
	C1179	C	0.091003	0.724489	0.834292
	C1180	C	0.028522	0.662317	0.665978
	C1181	C	0.091143	0.725806	0.665399
	C1182	C	0.035780	0.662996	0.833777
	C1183	C	0.098103	0.724657	0.835360
	N1184	N	0.005464	0.724986	0.955071
	N1185	N	0.069789	0.675373	0.947442
	N1186	N	0.057054	0.712770	0.544909
	N1187	N	0.121160	0.662410	0.553904
	N1188	N	0.056814	0.712582	0.946968
	N1189	N	0.121194	0.663081	0.955936
	N1190	N	0.005655	0.724907	0.553073
	N1191	N	0.069779	0.674588	0.544609
	N1192	N	0.057475	0.674351	0.697689
	N1193	N	0.120088	0.736330	0.705906
	N1194	N	0.006817	0.650888	0.803115
	N1195	N	0.069222	0.713727	0.794708
	N1196	N	0.006727	0.651186	0.705620
	N1197	N	0.069337	0.713182	0.697272
	N1198	N	0.057538	0.674209	0.794922
	N1199	N	0.119965	0.736984	0.803210
	H1200	H	0.011328	0.830549	0.349709
	H1201	H	0.075931	0.782008	0.344002
	H1202	H	0.047618	0.832017	0.148600
	H1203	H	0.111584	0.780575	0.155317
	H1204	H	0.047466	0.831026	0.344603
	H1205	H	0.112025	0.782208	0.351705
	H1206	H	0.011577	0.830850	0.153945
	H1207	H	0.075503	0.780058	0.148171
	H1208	H	0.048172	0.779551	0.093939
	H1209	H	0.110979	0.841102	0.100247
	H1210	H	0.012566	0.770330	0.404908
	H1211	H	0.074703	0.834403	0.398578
	H1212	H	0.012186	0.771639	0.100450
	H1213	H	0.075124	0.832598	0.094084
	H1214	H	0.048461	0.778782	0.398398
	H1215	H	0.110800	0.841595	0.404833
	H1216	H	0.023234	0.830493	0.348499
	H1217	H	0.087431	0.781357	0.650087
	H1218	H	0.035529	0.832828	-0.153642
	H1219	H	0.100115	0.781393	-0.150669
	H1220	H	0.035572	0.832762	0.346468
	H1221	H	0.099785	0.783828	0.652400
	H1222	H	0.023173	0.830361	-0.152121
	H1223	H	0.087729	0.779012	-0.153103
	H1224	H	0.036444	0.774603	0.096864
	H1225	H	0.099019	0.837499	0.401878
	H1226	H	0.024330	0.774985	0.402599
	H1227	H	0.086821	0.837482	0.096924
	H1228	H	0.024062	0.773875	0.098702
	H1229	H	0.086608	0.836634	0.400103
	H1230	H	0.036725	0.775732	0.400120
	H1231	H	0.099230	0.838287	0.099378
	Co1232	Co	0.124060	0.868971	0.128269
	Co1233	Co	0.061642	0.806369	0.119558
	Co1234	Co	-0.000870	0.743813	0.379883
	Co1235	Co	0.061651	0.806403	0.369694
	C1236	C	0.010221	0.832180	0.424463
	C1237	C	0.074681	0.782812	0.418277
	C1238	C	0.048743	0.830441	0.073843
	C1239	C	0.112876	0.779582	0.081035
	C1240	C	0.048690	0.829967	0.419039
	C1241	C	0.113113	0.780573	0.426244
	C1242	C	0.010323	0.832201	0.079856
	C1243	C	0.074436	0.782007	0.073699
	C1244	C	0.049386	0.780877	0.168471
	C1245	C	0.112045	0.842753	0.174901
	C1246	C	0.011349	0.769214	0.330506
	C1247	C	0.073695	0.832423	0.323952
	C1248	C	0.011194	0.769628	0.175313
	C1249	C	0.073911	0.831526	0.168686
	C1250	C	0.049535	0.780399	0.323661
	C1251	C	0.111945	0.843166	0.330172
	C1252	C	0.014730	0.829665	0.501509
	C1253	C	0.078972	0.779934	-0.003332
	C1254	C	0.044311	0.832614	0.497132
	C1255	C	0.108522	0.782641	0.002519
	C1256	C	0.045166	0.777069	0.246743
	C1257	C	0.107696	0.839427	0.252032
	C1258	C	0.015582	0.772800	0.252323
	C1259	C	0.078117	0.835468	0.247129
	C1260	C	0.022230	0.829562	0.500357
	C1261	C	0.086433	0.779724	-0.001848
	C1262	C	0.036820	0.832709	0.498244
	C1263	C	0.101034	0.782706	0.001010
	C1264	C	0.037689	0.774926	0.248269
	C1265	C	0.100227	0.837639	0.250844
	C1266	C	0.023042	0.774566	0.251015
	C1267	C	0.085569	0.837282	0.248359
	C1268	C	0.025928	0.830588	0.415410
	C1269	C	0.090149	0.781373	0.583424
	C1270	C	0.032936	0.832145	-0.085994
	C1271	C	0.097384	0.781368	-0.084026
	C1272	C	0.032995	0.832032	0.414399
	C1273	C	0.097210	0.782894	0.584715
	C1274	C	0.025858	0.830539	-0.084784
	C1275	C	0.090290	0.780066	-0.085318
	C1276	C	0.033835	0.774578	0.164586
	C1277	C	0.096395	0.837286	0.334365
	C1278	C	0.026904	0.774817	0.334680
	C1279	C	0.089409	0.837572	0.164734
	C1280	C	0.026744	0.774402	0.165909
	C1281	C	0.089292	0.837148	0.333032
	C1282	C	0.033994	0.775132	0.333408
	C1283	C	0.096512	0.837751	0.165974
	N1284	N	0.003764	0.837182	0.454696
	N1285	N	0.068165	0.787600	0.446216
	N1286	N	0.055184	0.825385	0.044164
	N1287	N	0.119391	0.774980	0.053019
	N1288	N	0.055169	0.824957	0.447046
	N1289	N	0.119559	0.775355	0.456155
	N1290	N	0.003838	0.837228	0.051951
	N1291	N	0.067992	0.787143	0.043845
	N1292	N	0.055683	0.787054	0.196446
	N1293	N	0.118304	0.849077	0.204513
	N1294	N	0.005035	0.763199	0.302485
	N1295	N	0.067465	0.826142	0.294045
	N1296	N	0.004932	0.763528	0.204955
	N1297	N	0.067590	0.825642	0.196432
	N1298	N	0.055763	0.786820	0.293548
	N1299	N	0.118232	0.849277	0.301838
	H1300	H	0.011306	0.830606	0.849910
	H1301	H	0.075856	0.782182	0.843693
	H1302	H	0.047685	0.831717	0.648552
	H1303	H	0.111664	0.780485	0.655787
	H1304	H	0.047340	0.831090	0.843972
	H1305	H	0.111876	0.782530	0.851211
	H1306	H	0.011634	0.831158	0.654752
	H1307	H	0.075628	0.780060	0.648562
	H1308	H	0.048269	0.779502	0.594358
	H1309	H	0.111092	0.840478	0.600212
	H1310	H	0.012609	0.770762	0.905200
	H1311	H	0.074723	0.834192	0.898519
	H1312	H	0.012319	0.771498	0.600669
	H1313	H	0.075121	0.832524	0.593868
	H1314	H	0.048541	0.778229	0.898826
	H1315	H	0.110682	0.842584	0.904345
	H1316	H	0.023452	0.829290	1.152384
	H1317	H	0.087421	0.780708	1.150193
	H1318	H	0.035820	0.831910	0.650156
	H1319	H	0.100148	0.781379	0.349569
	H1320	H	0.035786	0.831890	1.149911
	H1321	H	0.099742	0.782934	1.152594
	H1322	H	0.023463	0.829631	0.651639
	H1323	H	0.087798	0.778980	0.346941
	H1324	H	0.036738	0.775495	0.900087
	H1325	H	0.099159	0.839575	0.598608
	H1326	H	0.024068	0.774542	0.598900
	H1327	H	0.086518	0.835883	0.899454
	H1328	H	0.024347	0.775002	0.902315
	H1329	H	0.086766	0.838800	0.596838
	H1330	H	0.036484	0.775021	0.597081
	H1331	H	0.098975	0.836381	0.901778
	Co1332	Co	0.124222	0.868189	0.628632
	Co1333	Co	0.061670	0.805989	0.619883
	Co1334	Co	-0.000906	0.744255	0.880602
	Co1335	Co	0.061586	0.806522	0.869842
	C1336	C	0.010183	0.831952	0.924484
	C1337	C	0.074604	0.783095	0.918442
	C1338	C	0.048799	0.830106	0.574030
	C1339	C	0.112931	0.779632	0.581240
	C1340	C	0.048604	0.829860	0.918622
	C1341	C	0.113045	0.780511	0.925563
	C1342	C	0.010361	0.832414	0.579974
	C1343	C	0.074532	0.781871	0.573796
	C1344	C	0.049467	0.780652	0.668813
	C1345	C	0.112086	0.842398	0.674933
	C1346	C	0.011376	0.769305	0.830864
	C1347	C	0.073700	0.832368	0.823715
	C1348	C	0.011212	0.769771	0.675316
	C1349	C	0.073903	0.831479	0.668127
	C1350	C	0.049589	0.780166	0.824296
	C1351	C	0.111889	0.843514	0.830067
	C1352	C	0.014703	0.829403	1.001554
	C1353	C	0.079013	0.779762	0.496653
	C1354	C	0.044246	0.832817	0.996908
	C1355	C	0.108607	0.782755	0.502782
	C1356	C	0.045192	0.776982	0.747093
	C1357	C	0.107687	0.839515	0.752017
	C1358	C	0.015636	0.773047	0.752339
	C1359	C	0.078079	0.835425	0.746641
	C1360	C	0.022186	0.829370	1.000441
	C1361	C	0.086509	0.779764	0.498184
	C1362	C	0.036765	0.832821	0.998070
	C1363	C	0.101080	0.782981	0.501032
	C1364	C	0.037751	0.775147	0.748294
	C1365	C	0.100215	0.837727	0.750587
	C1366	C	0.023085	0.774830	0.750854
	C1367	C	0.085554	0.837383	0.748152
	C1368	C	0.026004	0.830071	1.084224
	C1369	C	0.090101	0.780898	1.083163
	C1370	C	0.033130	0.831822	0.583132
	C1371	C	0.097419	0.781450	0.416150
	C1372	C	0.033082	0.831629	1.083074
	C1373	C	0.097182	0.782264	1.084506
	C1374	C	0.026052	0.830330	0.584069
	C1375	C	0.090361	0.779984	0.414675
	C1376	C	0.034041	0.775199	0.833197
	C1377	C	0.096495	0.838542	0.665565
	C1378	C	0.026775	0.774843	0.665902
	C1379	C	0.089268	0.836700	0.832971
	C1380	C	0.026926	0.774884	0.834424
	C1381	C	0.089403	0.838246	0.664443
	C1382	C	0.033888	0.775037	0.664724
	C1383	C	0.096368	0.836884	0.834078
	N1384	N	0.003742	0.837092	0.954806
	N1385	N	0.068111	0.787750	0.946276
	N1386	N	0.055240	0.825069	0.544600
	N1387	N	0.119448	0.774746	0.553440
	N1388	N	0.055105	0.825064	0.946676
	N1389	N	0.119489	0.775481	0.955620
	N1390	N	0.003851	0.837336	0.552157
	N1391	N	0.068055	0.787046	0.543706
	N1392	N	0.055742	0.786726	0.697101
	N1393	N	0.118325	0.848806	0.704748
	N1394	N	0.005103	0.763186	0.802805
	N1395	N	0.067451	0.826054	0.793621
	N1396	N	0.004985	0.763488	0.705525
	N1397	N	0.067588	0.825437	0.696367
	N1398	N	0.055841	0.786388	0.794580
	N1399	N	0.118184	0.849521	0.802143
	H1400	H	0.009668	0.943258	0.349519
	H1401	H	0.074235	0.894073	0.344076
	H1402	H	0.045774	0.944337	0.149556
	H1403	H	0.109780	0.893024	0.154298
	H1404	H	0.045812	0.943445	0.343817
	H1405	H	0.110338	0.894864	0.351064
	H1406	H	0.009696	0.943770	0.153883
	H1407	H	0.073744	0.892612	0.148053
	H1408	H	0.046455	0.891819	0.094534
	H1409	H	0.109330	0.953005	0.099610
	H1410	H	0.010748	0.883041	0.404579
	H1411	H	0.072992	0.946794	0.398401
	H1412	H	0.010470	0.883689	0.100630
	H1413	H	0.073319	0.945250	0.093734
	H1414	H	0.046707	0.891134	0.399229
	H1415	H	0.108975	0.954857	0.403361
	H1416	H	0.021554	0.943623	0.348215
	H1417	H	0.085724	0.893828	0.649657
	H1418	H	0.033950	0.944449	0.149783
	H1419	H	0.097909	0.895099	0.152299
	H1420	H	0.033956	0.945707	0.346587
	H1421	H	0.098110	0.896041	0.652206
	H1422	H	0.021575	0.942081	0.151739
	H1423	H	0.085549	0.892741	0.149417
	H1424	H	0.034679	0.887150	0.096771
	H1425	H	0.097233	0.949581	0.401382
	H1426	H	0.022524	0.887842	0.401844
	H1427	H	0.085016	0.950230	0.096021
	H1428	H	0.022299	0.886491	0.098601
	H1429	H	0.084802	0.949315	0.399079
	H1430	H	0.034925	0.888307	0.400176
	H1431	H	0.097397	0.950714	0.098299
	Co1432	Co	0.122401	0.980918	0.127075
	Co1433	Co	0.059814	0.918631	0.119806
	Co1434	Co	-0.002672	0.856172	0.379464
	Co1435	Co	0.059989	0.918419	0.370311
	C1436	C	0.008556	0.944925	0.424221
	C1437	C	0.072989	0.895046	0.418534
	C1438	C	0.046940	0.942812	0.074573
	C1439	C	0.111052	0.892169	0.079874
	C1440	C	0.047015	0.942272	0.418479
	C1441	C	0.111396	0.892940	0.425281
	C1442	C	0.008514	0.945338	0.079593
	C1443	C	0.072642	0.894360	0.073439
	C1444	C	0.047636	0.893248	0.168828
	C1445	C	0.110309	0.954865	0.173966
	C1446	C	0.009519	0.881778	0.330506
	C1447	C	0.071965	0.944869	0.323633
	C1448	C	0.009387	0.882057	0.175074
	C1449	C	0.072145	0.943918	0.168363
	C1450	C	0.047791	0.892676	0.324207
	C1451	C	0.110139	0.955952	0.329041
	C1452	C	0.013043	0.942628	0.501346
	C1453	C	0.077127	0.892149	-0.003638
	C1454	C	0.042662	0.944991	0.496658
	C1455	C	0.106709	0.895154	0.001751
	C1456	C	0.043386	0.889524	0.247125
	C1457	C	0.105922	0.951902	0.251139
	C1458	C	0.013788	0.885466	0.252081
	C1459	C	0.076343	0.947964	0.246565
	C1460	C	0.020569	0.942332	0.500166
	C1461	C	0.084627	0.891955	-0.002276
	C1462	C	0.035169	0.945188	0.497935
	C1463	C	0.099194	0.895232	0.000628
	C1464	C	0.035947	0.887727	0.248225
	C1465	C	0.098452	0.949987	0.250003
	C1466	C	0.021250	0.887371	0.250567
	C1467	C	0.083810	0.949775	0.247646
	C1468	C	0.024262	0.943568	0.415141
	C1469	C	0.088478	0.893797	0.583242
	C1470	C	0.031260	0.944236	0.083018
	C1471	C	0.095351	0.894485	0.084368
	C1472	C	0.031336	0.944870	0.414195
	C1473	C	0.095531	0.895213	0.584429
	C1474	C	0.024180	0.942740	0.084101
	C1475	C	0.088286	0.893062	0.082804
	C1476	C	0.032091	0.887330	0.164513
	C1477	C	0.094619	0.949629	0.333638
	C1478	C	0.025108	0.887732	0.334091
	C1479	C	0.087630	0.949965	0.163723
	C1480	C	0.024973	0.887001	0.165716
	C1481	C	0.087526	0.949540	0.332533
	C1482	C	0.032223	0.887957	0.333127
	C1483	C	0.094715	0.950289	0.165041
	N1484	N	0.002115	0.950220	0.454101
	N1485	N	0.066474	0.899709	0.446663
	N1486	N	0.053379	0.937755	0.044813
	N1487	N	0.117572	0.887611	0.051872
	N1488	N	0.053518	0.937292	0.446927
	N1489	N	0.117849	0.887569	0.455075
	N1490	N	0.002050	0.950651	0.051387
	N1491	N	0.066185	0.899570	0.043304
	N1492	N	0.053932	0.899264	0.197003
	N1493	N	0.116533	0.961426	0.203566
	N1494	N	0.003252	0.875467	0.302393
	N1495	N	0.065727	0.938433	0.293925
	N1496	N	0.003154	0.875722	0.204989
	N1497	N	0.065844	0.937847	0.196560
	N1498	N	0.054034	0.898933	0.294526
	N1499	N	0.116445	0.961959	0.301005
	H1500	H	0.009465	0.943501	0.849267
	H1501	H	0.074044	0.894355	0.843234
	H1502	H	0.046017	0.944120	0.648486
	H1503	H	0.110033	0.892713	0.654962
	H1504	H	0.045559	0.943297	0.845012
	H1505	H	0.110129	0.895018	0.849989
	H1506	H	0.009954	0.944665	0.654462
	H1507	H	0.073913	0.892411	0.648488
	H1508	H	0.046462	0.891667	0.594137
	H1509	H	0.109238	0.953036	0.598597
	H1510	H	0.010811	0.882946	0.905160
	H1511	H	0.072883	0.946737	0.898291
	H1512	H	0.010500	0.883838	0.599822
	H1513	H	0.073291	0.945107	0.593792
	H1514	H	0.046667	0.891050	0.898893
	H1515	H	0.108927	0.954680	0.903687
	H1516	H	0.021369	0.942669	0.848527
	H1517	H	0.085890	0.891746	0.846121
	H1518	H	0.034212	0.944166	0.649703
	H1519	H	0.098455	0.894026	0.348959
	H1520	H	0.033704	0.945035	0.846694
	H1521	H	0.098216	0.894296	0.848625
	H1522	H	0.021828	0.941954	0.651619
	H1523	H	0.086104	0.891310	0.346775
	H1524	H	0.034949	0.887835	0.900137
	H1525	H	0.097374	0.951636	0.597999
	H1526	H	0.022288	0.887202	0.598887
	H1527	H	0.084838	0.948656	0.899837
	H1528	H	0.022558	0.887293	0.902312
	H1529	H	0.085009	0.950843	0.596231
	H1530	H	0.034677	0.887608	0.596920
	H1531	H	0.097242	0.948952	0.901433
	Co1532	Co	0.122348	0.980871	0.626915
	Co1533	Co	0.059921	0.918176	0.619804
	Co1534	Co	-0.002652	0.856189	0.879710
	Co1535	Co	0.059835	0.918975	0.869843
	C1536	C	0.008401	0.945090	0.924420
	C1537	C	0.072800	0.895235	0.917842
	C1538	C	0.047095	0.942574	0.573895
	C1539	C	0.111242	0.891990	0.580338
	C1540	C	0.046817	0.942268	0.919218
	C1541	C	0.111215	0.893140	0.924752
	C1542	C	0.008698	0.945713	0.579726
	C1543	C	0.072836	0.894216	0.573748
	C1544	C	0.047658	0.893000	0.668572
	C1545	C	0.110288	0.954879	0.673716
	C1546	C	0.009591	0.881621	0.830385
	C1547	C	0.071931	0.944867	0.823478
	C1548	C	0.009420	0.882185	0.674878
	C1549	C	0.072129	0.943923	0.668498
	C1550	C	0.047768	0.892826	0.824286
	C1551	C	0.110154	0.955731	0.828910
	C1552	C	0.012878	0.942258	1.001518
	C1553	C	0.077300	0.892065	0.496747
	C1554	C	0.042435	0.945167	0.997401
	C1555	C	0.106930	0.895263	0.502240
	C1556	C	0.043396	0.889375	0.747012
	C1557	C	0.105924	0.951926	0.751062
	C1558	C	0.013834	0.885521	0.751956
	C1559	C	0.076314	0.947916	0.746682
	C1560	C	0.020354	0.942036	1.000363
	C1561	C	0.084828	0.892215	0.498169
	C1562	C	0.034944	0.945240	0.998210
	C1563	C	0.099403	0.895500	0.500785
	C1564	C	0.035940	0.887561	0.748160
	C1565	C	0.098434	0.950074	0.749910
	C1566	C	0.021287	0.887417	0.750632
	C1567	C	0.083781	0.949807	0.747908
	C1568	C	0.024057	0.942993	0.915437
	C1569	C	0.088458	0.892548	0.913952
	C1570	C	0.031485	0.944075	0.582937
	C1571	C	0.095733	0.894126	0.415751
	C1572	C	0.031139	0.944495	0.914342
	C1573	C	0.095516	0.894058	0.915550
	C1574	C	0.024418	0.942687	0.583856
	C1575	C	0.088680	0.892469	0.414408
	C1576	C	0.032249	0.887503	0.833235
	C1577	C	0.094695	0.950759	0.664987
	C1578	C	0.024977	0.887519	0.665758
	C1579	C	0.087520	0.949287	0.832828
	C1580	C	0.025134	0.887356	0.834449
	C1581	C	0.087616	0.950383	0.663930
	C1582	C	0.032083	0.887654	0.664567
	C1583	C	0.094607	0.949357	0.833797
	N1584	N	0.001970	0.950574	0.953930
	N1585	N	0.066299	0.900128	0.946100
	N1586	N	0.053565	0.937519	0.544237
	N1587	N	0.117759	0.887010	0.552380
	N1588	N	0.053312	0.937438	0.947392
	N1589	N	0.117672	0.888182	0.954359
	N1590	N	0.002199	0.950672	0.551780
	N1591	N	0.066361	0.899201	0.543921
	N1592	N	0.053942	0.899157	0.696868
	N1593	N	0.116544	0.961232	0.703255
	N1594	N	0.003312	0.875413	0.802232
	N1595	N	0.065700	0.938457	0.793828
	N1596	N	0.003209	0.875744	0.704922
	N1597	N	0.065821	0.937837	0.696183
	N1598	N	0.054019	0.899128	0.794259
	N1599	N	0.116460	0.961801	0.800598
	H1600	H	0.134774	0.069124	0.347123
	H1601	H	0.199001	0.018569	0.347809
	H1602	H	0.170755	0.068975	0.153337
	H1603	H	0.234992	0.019223	0.152754
	H1604	H	0.170817	0.068961	0.348538
	H1605	H	0.235104	0.018941	0.348626
	H1606	H	0.134668	0.068839	0.153076
	H1607	H	0.198913	0.017826	0.153198
	H1608	H	0.171666	0.016165	0.098674
	H1609	H	0.234079	0.079189	0.098761
	H1610	H	0.135715	0.008393	0.403449
	H1611	H	0.198104	0.071301	0.402673
	H1612	H	0.135647	0.008508	0.098607
	H1613	H	0.198223	0.070811	0.098873
	H1614	H	0.171668	0.016414	0.402627
	H1615	H	0.234136	0.078759	0.401886
	H1616	H	0.146600	0.067094	0.348983
	H1617	H	0.210842	0.017827	0.348599
	H1618	H	0.158895	0.070182	0.152488
	H1619	H	0.223139	0.020108	-0.150775
	H1620	H	0.158993	0.069306	0.349342
	H1621	H	0.223205	0.020485	0.348976
	H1622	H	0.146524	0.067900	0.152418
	H1623	H	0.210783	0.017417	-0.150561
	H1624	H	0.159845	0.012883	0.099041
	H1625	H	0.222336	0.075332	0.099172
	H1626	H	0.147474	0.011754	0.402220
	H1627	H	0.209952	0.075068	0.402069
	H1628	H	0.147433	0.012394	0.099296
	H1629	H	0.209942	0.074679	0.098805
	H1630	H	0.159883	0.012560	0.401830
	H1631	H	0.222315	0.075713	0.401958
	Co1632	Co	0.247385	0.106295	0.124945
	Co1633	Co	0.184853	0.043628	0.125643
	Co1634	Co	0.122363	-0.018516	0.377258
	Co1635	Co	0.184909	0.043626	0.375491
	C1636	C	0.133585	0.070285	0.422022
	C1637	C	0.197836	0.019925	0.422606
	C1638	C	0.171924	0.067493	0.078603
	C1639	C	0.236175	0.017701	0.078738
	C1640	C	0.171989	0.067464	0.423116
	C1641	C	0.236212	0.017697	0.423318
	C1642	C	0.133535	0.070465	0.078297
	C1643	C	0.197756	0.019516	0.078599
	C1644	C	0.172770	0.017816	0.172765
	C1645	C	0.235228	0.080600	0.172721
	C1646	C	0.134577	0.006871	0.328649
	C1647	C	0.197007	0.069637	0.328261
	C1648	C	0.134549	0.006887	0.173055
	C1649	C	0.197032	0.069399	0.173122
	C1650	C	0.172782	0.017868	0.327979
	C1651	C	0.235254	0.080342	0.328057
	C1652	C	0.137980	0.067327	0.499849
	C1653	C	0.202211	0.016949	0.001026
	C1654	C	0.167563	0.070021	0.500814
	C1655	C	0.231751	0.020360	0.000902
	C1656	C	0.168461	0.014394	0.250440
	C1657	C	0.230920	0.077033	0.250316
	C1658	C	0.138874	0.010342	0.250655
	C1659	C	0.201340	0.073084	0.250547
	C1660	C	0.145478	0.067070	0.500339
	C1661	C	0.209697	0.016866	0.001026
	C1662	C	0.160067	0.070111	0.500897
	C1663	C	0.224267	0.020489	0.000916
	C1664	C	0.160995	0.012578	0.250472
	C1665	C	0.223452	0.075279	0.250514
	C1666	C	0.146337	0.012086	0.250703
	C1667	C	0.208785	0.075010	0.250480
	C1668	C	0.149252	0.067752	0.416193
	C1669	C	0.213490	0.018287	0.416021
	C1670	C	0.156248	0.069633	0.085011
	C1671	C	0.220508	0.019574	-0.083409
	C1672	C	0.156332	0.069076	0.416592
	C1673	C	0.220543	0.019763	0.416204
	C1674	C	0.149176	0.068213	0.085051
	C1675	C	0.213433	0.017911	-0.083369
	C1676	C	0.157198	0.012683	0.166316
	C1677	C	0.219675	0.075116	0.166228
	C1678	C	0.150119	0.012006	0.334933
	C1679	C	0.212566	0.075171	0.334704
	C1680	C	0.150104	0.012376	0.166418
	C1681	C	0.212559	0.074896	0.166390
	C1682	C	0.157220	0.012419	0.334738
	C1683	C	0.219664	0.075315	0.334851
	N1684	N	0.127114	0.075542	0.451181
	N1685	N	0.191321	0.024655	0.451488
	N1686	N	0.178400	0.062478	0.049285
	N1687	N	0.242656	0.012616	0.049977
	N1688	N	0.178441	0.062377	0.451861
	N1689	N	0.242705	0.012658	0.452246
	N1690	N	0.127089	0.075834	0.049603
	N1691	N	0.191306	0.024718	0.049228
	N1692	N	0.179055	0.023881	0.201470
	N1693	N	0.241494	0.086726	0.201734
	N1694	N	0.128305	0.000650	0.299858
	N1695	N	0.190762	0.063245	0.299379
	N1696	N	0.128277	0.000697	0.202450
	N1697	N	0.190767	0.063117	0.201895
	N1698	N	0.179044	0.024077	0.298940
	N1699	N	0.241523	0.086531	0.299039
	H1700	H	0.134687	0.069301	0.848344
	H1701	H	0.199027	0.018700	0.848907
	H1702	H	0.170846	0.068602	0.652980
	H1703	H	0.235081	0.019009	0.653073
	H1704	H	0.170751	0.068849	0.848094
	H1705	H	0.235006	0.018944	0.848499
	H1706	H	0.134689	0.068361	0.652032
	H1707	H	0.198978	0.018370	0.652746
	H1708	H	0.171631	0.015792	0.598907
	H1709	H	0.234198	0.078363	0.598032
	H1710	H	0.135621	0.008775	0.903732
	H1711	H	0.198087	0.070918	0.902638
	H1712	H	0.135691	0.008094	0.598958
	H1713	H	0.198118	0.070697	0.597707
	H1714	H	0.171582	0.016527	0.903180
	H1715	H	0.234023	0.078759	0.903476
	H1716	H	0.146539	0.067455	0.848683
	H1717	H	0.210782	0.017106	1.152527
	H1718	H	0.158925	0.070156	0.652528
	H1719	H	0.223207	0.019621	0.652088
	H1720	H	0.158937	0.069521	0.848594
	H1721	H	0.223157	0.020029	1.152383
	H1722	H	0.146549	0.067742	0.652087
	H1723	H	0.210846	0.017412	0.652119
	H1724	H	0.159842	0.012254	0.902941
	H1725	H	0.222307	0.075212	0.902123
	H1726	H	0.147415	0.012486	0.599750
	H1727	H	0.209912	0.074698	0.597971
	H1728	H	0.147443	0.011652	0.902968
	H1729	H	0.209893	0.074513	0.901944
	H1730	H	0.159834	0.012883	0.599625
	H1731	H	0.222283	0.075260	0.598390
	Co1732	Co	0.247387	0.105838	0.625799
	Co1733	Co	0.184907	0.043287	0.625199
	Co1734	Co	0.122395	-0.018752	0.877053
	Co1735	Co	0.184841	0.043749	0.875416
	C1736	C	0.133527	0.070619	0.923072
	C1737	C	0.197804	0.019840	0.923137
	C1738	C	0.172003	0.067264	0.578258
	C1739	C	0.236196	0.017634	0.578201
	C1740	C	0.171928	0.067525	0.922719
	C1741	C	0.236180	0.017524	0.923193
	C1742	C	0.133556	0.070028	0.577511
	C1743	C	0.197823	0.019628	0.577955
	C1744	C	0.172722	0.017534	0.673708
	C1745	C	0.235232	0.080135	0.673184
	C1746	C	0.134534	0.007035	0.829149
	C1747	C	0.196991	0.069376	0.827874
	C1748	C	0.134550	0.006757	0.673849
	C1749	C	0.197004	0.069153	0.672507
	C1750	C	0.172714	0.017895	0.828524
	C1751	C	0.235182	0.080321	0.828372
	C1752	C	0.137945	0.067679	1.000532
	C1753	C	0.202221	0.017268	0.500370
	C1754	C	0.167503	0.070156	1.000662
	C1755	C	0.231829	0.020299	0.500657
	C1756	C	0.168423	0.014196	0.751212
	C1757	C	0.230904	0.076870	0.750596
	C1758	C	0.138834	0.010460	0.751349
	C1759	C	0.201303	0.072796	0.750198
	C1760	C	0.145424	0.067333	1.000509
	C1761	C	0.209742	0.017202	0.500395
	C1762	C	0.160010	0.070303	1.000459
	C1763	C	0.224311	0.020361	0.500659
	C1764	C	0.160951	0.012507	0.751280
	C1765	C	0.223434	0.075187	0.750379
	C1766	C	0.146315	0.012296	0.751405
	C1767	C	0.208778	0.074762	0.750149
	C1768	C	0.149187	0.068039	0.916064
	C1769	C	0.213437	0.017725	1.085271
	C1770	C	0.156305	0.069481	0.585171
	C1771	C	0.220544	0.019394	0.584995
	C1772	C	0.156271	0.069350	0.915935
	C1773	C	0.220508	0.019452	1.085232
	C1774	C	0.149226	0.068029	0.584843
	C1775	C	0.213500	0.017962	0.584764
	C1776	C	0.157182	0.012339	0.835568
	C1777	C	0.219647	0.075079	0.834847
	C1778	C	0.150087	0.012522	0.666964
	C1779	C	0.212551	0.074829	0.665653
	C1780	C	0.150095	0.012123	0.835688
	C1781	C	0.212556	0.074797	0.834540
	C1782	C	0.157173	0.012607	0.667028
	C1783	C	0.219639	0.075143	0.665723
	N1784	N	0.127083	0.075911	0.952059
	N1785	N	0.191336	0.024907	0.952036
	N1786	N	0.178461	0.062295	0.549143
	N1787	N	0.242694	0.012701	0.549707
	N1788	N	0.178403	0.062543	0.951815
	N1789	N	0.242653	0.012461	0.952270
	N1790	N	0.127084	0.075325	0.548569
	N1791	N	0.191330	0.024500	0.548988
	N1792	N	0.178981	0.023851	0.702172
	N1793	N	0.241506	0.086259	0.702183
	N1794	N	0.128257	0.000715	0.800340
	N1795	N	0.190734	0.063072	0.798747
	N1796	N	0.128273	0.000473	0.702978
	N1797	N	0.190722	0.063014	0.701283
	N1798	N	0.178985	0.024050	0.799546
	N1799	N	0.241488	0.086371	0.799730
	H1800	H	0.133178	0.176959	0.347475
	H1801	H	0.197225	0.131797	0.347570
	H1802	H	0.169120	0.181998	0.152366
	H1803	H	0.233315	0.131899	0.152926
	H1804	H	0.169100	0.182446	0.348032
	H1805	H	0.233301	0.131827	0.348958
	H1806	H	0.133140	0.176682	0.152255
	H1807	H	0.197108	0.130829	0.151783
	H1808	H	0.169920	0.129430	0.098278
	H1809	H	0.232557	0.191514	0.098801
	H1810	H	0.134056	0.121188	0.403657
	H1811	H	0.196466	0.184105	0.401899
	H1812	H	0.134071	0.121231	0.098727
	H1813	H	0.196605	0.183383	0.097760
	H1814	H	0.169941	0.129736	0.402178
	H1815	H	0.232353	0.193185	0.402478
	H1816	H	0.144947	0.179592	0.348864
	H1817	H	0.209073	0.130747	0.348488
	H1818	H	0.157232	0.183568	0.150957
	H1819	H	0.221435	0.132582	0.152187
	H1820	H	0.157261	0.183202	0.349373
	H1821	H	0.221495	0.132755	0.348986
	H1822	H	0.144935	0.179651	0.150569
	H1823	H	0.209038	0.130262	0.152264
	H1824	H	0.158170	0.125869	0.099141
	H1825	H	0.220749	0.188069	0.099481
	H1826	H	0.145809	0.124236	0.402685
	H1827	H	0.208294	0.187013	0.401327
	H1828	H	0.145783	0.125180	0.100000
	H1829	H	0.208325	0.187391	0.098659
	H1830	H	0.158226	0.125224	0.402477
	H1831	H	0.220687	0.188216	0.401250
	Co1832	Co	0.245703	0.219295	0.125232
	Co1833	Co	0.183188	0.156971	0.124663
	Co1834	Co	0.120663	0.094590	0.376116
	Co1835	Co	0.183178	0.157258	0.375350
	C1836	C	0.131909	0.177888	0.422114
	C1837	C	0.196075	0.133045	0.422064
	C1838	C	0.170303	0.180954	0.077923
	C1839	C	0.234466	0.130091	0.078166
	C1840	C	0.170281	0.181103	0.422730
	C1841	C	0.234501	0.130185	0.422924
	C1842	C	0.131939	0.177520	0.077388
	C1843	C	0.196010	0.132682	0.077146
	C1844	C	0.171047	0.131209	0.172930
	C1845	C	0.233622	0.193245	0.173306
	C1846	C	0.132889	0.119754	0.328843
	C1847	C	0.195388	0.182488	0.327519
	C1848	C	0.132908	0.119773	0.173225
	C1849	C	0.195442	0.182041	0.172352
	C1850	C	0.171080	0.131125	0.328033
	C1851	C	0.233508	0.194198	0.328176
	C1852	C	0.136374	0.176911	0.499759
	C1853	C	0.200455	0.130264	-0.000304
	C1854	C	0.165837	0.183820	0.500335
	C1855	C	0.230036	0.132654	0.000639
	C1856	C	0.166770	0.127492	0.250712
	C1857	C	0.229276	0.190180	0.250574
	C1858	C	0.137233	0.123042	0.251151
	C1859	C	0.199716	0.185612	0.249950
	C1860	C	0.143824	0.178792	0.499960
	C1861	C	0.207948	0.129894	0.000390
	C1862	C	0.158343	0.183817	0.500352
	C1863	C	0.222539	0.132772	0.000701
	C1864	C	0.159324	0.125495	0.250767
	C1865	C	0.221824	0.188121	0.250295
	C1866	C	0.144695	0.124834	0.251390
	C1867	C	0.207193	0.187391	0.249975
	C1868	C	0.147571	0.180257	0.416024
	C1869	C	0.211748	0.130843	0.415706
	C1870	C	0.154604	0.182734	0.083846
	C1871	C	0.218766	0.132080	0.084961
	C1872	C	0.154616	0.182565	0.416326
	C1873	C	0.218830	0.132278	0.416170
	C1874	C	0.147579	0.180302	0.083671
	C1875	C	0.211689	0.130700	0.084906
	C1876	C	0.155552	0.125538	0.166694
	C1877	C	0.218060	0.187985	0.166188
	C1878	C	0.148470	0.124717	0.335476
	C1879	C	0.210954	0.187303	0.334174
	C1880	C	0.148456	0.125163	0.167096
	C1881	C	0.210969	0.187698	0.165900
	C1882	C	0.155562	0.125115	0.335195
	C1883	C	0.218036	0.187835	0.334369
	N1884	N	0.125310	0.180335	0.450688
	N1885	N	0.189606	0.138232	0.451129
	N1886	N	0.176787	0.175982	0.048784
	N1887	N	0.240942	0.125236	0.049000
	N1888	N	0.176749	0.176130	0.451718
	N1889	N	0.240957	0.124783	0.452097
	N1890	N	0.125334	0.180117	0.048584
	N1891	N	0.189541	0.138037	0.047865
	N1892	N	0.177293	0.137660	0.201676
	N1893	N	0.239854	0.199833	0.202401
	N1894	N	0.126588	0.114004	0.299662
	N1895	N	0.189085	0.176541	0.298437
	N1896	N	0.126592	0.114036	0.202248
	N1897	N	0.189125	0.176301	0.201170
	N1898	N	0.177301	0.137685	0.298895
	N1899	N	0.239788	0.200332	0.299481
	H1900	H	0.133186	0.176588	0.847241
	H1901	H	0.197292	0.132449	0.846825
	H1902	H	0.169074	0.182271	0.652642
	H1903	H	0.233254	0.131007	0.653013
	H1904	H	0.169211	0.183384	0.848586
	H1905	H	0.233271	0.131252	0.847715
	H1906	H	0.133132	0.177139	0.652028
	H1907	H	0.197160	0.131114	0.652109
	H1908	H	0.170040	0.129192	0.598104
	H1909	H	0.232499	0.192211	0.599047
	H1910	H	0.134045	0.121484	0.902726
	H1911	H	0.196543	0.184159	0.902268
	H1912	H	0.134122	0.120677	0.597599
	H1913	H	0.196649	0.183357	0.597067
	H1914	H	0.169975	0.130150	0.903120
	H1915	H	0.232491	0.192193	0.902902
	H1916	H	0.144961	0.179636	0.849020
	H1917	H	0.209102	0.130252	0.848647
	H1918	H	0.157203	0.183787	0.651313
	H1919	H	0.221413	0.131804	0.651957
	H1920	H	0.157315	0.183485	0.849405
	H1921	H	0.221447	0.132408	0.848978
	H1922	H	0.144905	0.179755	0.650888
	H1923	H	0.209061	0.129710	0.651376
	H1924	H	0.158279	0.126198	0.598744
	H1925	H	0.220828	0.187795	0.599692
	H1926	H	0.145903	0.123917	0.901227
	H1927	H	0.208377	0.186628	0.901724
	H1928	H	0.145885	0.125141	0.598588
	H1929	H	0.208449	0.186958	0.598567
	H1930	H	0.158304	0.125077	0.901311
	H1931	H	0.220812	0.187768	0.901746
	Co1932	Co	0.245644	0.220037	0.624788
	Co1933	Co	0.183249	0.157235	0.624825
	Co1934	Co	0.120670	0.095040	0.876045
	Co1935	Co	0.183230	0.157712	0.874592
	C1936	C	0.131943	0.177513	0.921808
	C1937	C	0.196094	0.133462	0.921675
	C1938	C	0.170272	0.181089	0.577961
	C1939	C	0.234471	0.129740	0.578638
	C1940	C	0.170338	0.181645	0.922866
	C1941	C	0.234438	0.129891	0.922829
	C1942	C	0.131911	0.177883	0.577437
	C1943	C	0.196056	0.132801	0.577486
	C1944	C	0.171118	0.131219	0.672605
	C1945	C	0.233646	0.193826	0.673207
	C1946	C	0.132985	0.119837	0.827688
	C1947	C	0.195453	0.182592	0.827148
	C1948	C	0.132998	0.119578	0.672483
	C1949	C	0.195504	0.182182	0.671906
	C1950	C	0.171080	0.131728	0.828040
	C1951	C	0.233656	0.193677	0.828485
	C1952	C	0.136374	0.176498	0.999445
	C1953	C	0.200477	0.130092	0.499722
	C1954	C	0.165916	0.184060	1.000364
	C1955	C	0.230065	0.132759	0.500767
	C1956	C	0.166847	0.127774	0.750389
	C1957	C	0.229355	0.190026	0.751138
	C1958	C	0.137295	0.122968	0.750061
	C1959	C	0.199817	0.185504	0.749830
	C1960	C	0.143851	0.178615	0.999563
	C1961	C	0.207972	0.129827	0.499847
	C1962	C	0.158391	0.183845	1.000012
	C1963	C	0.222568	0.132918	0.500589
	C1964	C	0.159392	0.125589	0.750201
	C1965	C	0.221900	0.187797	0.750954
	C1966	C	0.144769	0.124750	0.749947
	C1967	C	0.207268	0.187049	0.750226
	C1968	C	0.147604	0.180275	0.915801
	C1969	C	0.211731	0.130620	0.916242
	C1970	C	0.154589	0.182902	0.584265
	C1971	C	0.218792	0.131830	0.584554
	C1972	C	0.154634	0.182712	0.916064
	C1973	C	0.218797	0.131875	0.916222
	C1974	C	0.147543	0.180477	0.583953
	C1975	C	0.211725	0.130344	0.584355
	C1976	C	0.155617	0.125618	0.665741
	C1977	C	0.218151	0.187636	0.666396
	C1978	C	0.148548	0.124589	0.834114
	C1979	C	0.211035	0.186999	0.834555
	C1980	C	0.148542	0.125201	0.665729
	C1981	C	0.211053	0.187205	0.666054
	C1982	C	0.155624	0.125031	0.834390
	C1983	C	0.218130	0.187492	0.834934
	N1984	N	0.125331	0.180067	0.950667
	N1985	N	0.189603	0.138514	0.950341
	N1986	N	0.176741	0.176036	0.549056
	N1987	N	0.240932	0.124632	0.549522
	N1988	N	0.176805	0.176457	0.951495
	N1989	N	0.240913	0.125098	0.951347
	N1990	N	0.125321	0.180383	0.548877
	N1991	N	0.189608	0.138058	0.548558
	N1992	N	0.177378	0.137720	0.701602
	N1993	N	0.239896	0.200262	0.702139
	N1994	N	0.126682	0.114027	0.799171
	N1995	N	0.189137	0.176965	0.798334
	N1996	N	0.126677	0.113858	0.701537
	N1997	N	0.189165	0.176718	0.700528
	N1998	N	0.177345	0.138028	0.798878
	N1999	N	0.239890	0.200160	0.799246
	H2000	H	0.142574	0.386947	0.352206
	H2001	H	0.195618	0.239626	0.347486
	H2002	H	0.169946	0.300811	0.151735
	H2003	H	0.231662	0.244639	0.152607
	H2004	H	0.169731	0.300861	0.349846
	H2005	H	0.231597	0.245649	0.347924
	H2006	H	0.142739	0.386546	0.154809
	H2007	H	0.195745	0.239428	0.151988
	H2008	H	0.167047	0.241349	0.097682
	H2009	H	0.229442	0.304549	0.099437
	H2010	H	0.131381	0.229890	0.401509
	H2011	H	0.193755	0.292407	0.402314
	H2012	H	0.131454	0.229276	0.097705
	H2013	H	0.193941	0.291773	0.098315
	H2014	H	0.166925	0.241755	0.400682
	H2015	H	0.229455	0.304467	0.403085
	H2016	H	0.151260	0.358162	0.427034
	H2017	H	0.207407	0.242354	0.349823
	H2018	H	0.160745	0.327673	0.002172
	H2019	H	0.219777	0.246736	0.150941
	H2020	H	0.160738	0.328553	0.424953
	H2021	H	0.219719	0.246458	0.349855
	H2022	H	0.151251	0.357226	0.003633
	H2023	H	0.207447	0.242762	0.150535
	H2024	H	0.155194	0.241348	0.100197
	H2025	H	0.217708	0.304368	0.102630
	H2026	H	0.142827	0.238455	0.397911
	H2027	H	0.205275	0.301173	0.399482
	H2028	H	0.142798	0.238897	0.101010
	H2029	H	0.205283	0.301794	0.102284
	H2030	H	0.155262	0.241029	0.397749
	H2031	H	0.217633	0.303799	0.399902
	Co2032	Co	0.243783	0.322814	0.126131
	Co2033	Co	0.181308	0.260043	0.125218
	Co2034	Co	0.118773	0.198169	0.374680
	Co2035	Co	0.181210	0.260264	0.374556
	C2036	C	0.141745	0.389753	0.426339
	C2037	C	0.194410	0.240229	0.422049
	C2038	C	0.170790	0.297950	0.077818
	C2039	C	0.232834	0.243345	0.078132
	C2040	C	0.170676	0.297926	0.423364
	C2041	C	0.232760	0.244165	0.422693
	C2042	C	0.141839	0.389541	0.081180
	C2043	C	0.194506	0.240092	0.077347
	C2044	C	0.168232	0.241875	0.171582
	C2045	C	0.230686	0.304954	0.173742
	C2046	C	0.130366	0.227838	0.327082
	C2047	C	0.192786	0.290289	0.327769
	C2048	C	0.130410	0.227612	0.171883
	C2049	C	0.192862	0.290049	0.172561
	C2050	C	0.168177	0.242208	0.326340
	C2051	C	0.230682	0.304967	0.328988
	C2052	C	0.145082	0.378834	0.503193
	C2053	C	0.198954	0.239285	-0.000315
	C2054	C	0.167413	0.308841	0.500650
	C2055	C	0.228438	0.246307	0.000546
	C2056	C	0.163800	0.241086	0.248895
	C2057	C	0.226260	0.303937	0.251254
	C2058	C	0.134475	0.233244	0.249561
	C2059	C	0.196918	0.295787	0.250329
	C2060	C	0.150729	0.361104	0.502866
	C2061	C	0.206418	0.241231	-0.000114
	C2062	C	0.161771	0.326611	0.501320
	C2063	C	0.220939	0.246316	0.000313
	C2064	C	0.156306	0.240587	0.249063
	C2065	C	0.218779	0.303580	0.251100
	C2066	C	0.141793	0.238012	0.249663
	C2067	C	0.204236	0.300670	0.250731
	C2068	C	0.153426	0.351960	0.459803
	C2069	C	0.210048	0.243000	0.416438
	C2070	C	0.158822	0.334718	0.002269
	C2071	C	0.217159	0.245645	0.083910
	C2072	C	0.158802	0.335194	0.458985
	C2073	C	0.217083	0.245360	0.416583
	C2074	C	0.153430	0.351432	0.002889
	C2075	C	0.210111	0.243209	0.083805
	C2076	C	0.152549	0.240538	0.166100
	C2077	C	0.215052	0.303637	0.168211
	C2078	C	0.145506	0.239179	0.332547
	C2079	C	0.207956	0.301776	0.333870
	C2080	C	0.145496	0.239242	0.166441
	C2081	C	0.207978	0.302194	0.168002
	C2082	C	0.152566	0.240465	0.332250
	C2083	C	0.215016	0.303254	0.333921
	N2084	N	0.136918	0.405485	0.456395
	N2085	N	0.187793	0.242607	0.450682
	N2086	N	0.175609	0.282130	0.047936
	N2087	N	0.239316	0.238374	0.049476
	N2088	N	0.175507	0.282078	0.452417
	N2089	N	0.239251	0.239127	0.451729
	N2090	N	0.136977	0.405310	0.052357
	N2091	N	0.187912	0.242487	0.048619
	N2092	N	0.174787	0.243903	0.200817
	N2093	N	0.237217	0.306916	0.202451
	N2094	N	0.124459	0.218739	0.297865
	N2095	N	0.186880	0.281120	0.298316
	N2096	N	0.124468	0.218683	0.201286
	N2097	N	0.186925	0.280989	0.201688
	N2098	N	0.174743	0.244134	0.298021
	N2099	N	0.237226	0.306775	0.300097
	H2100	H	0.142498	0.386321	0.852931
	H2101	H	0.195732	0.239436	0.847213
	H2102	H	0.169842	0.301251	0.652008
	H2103	H	0.231541	0.244899	0.652508
	H2104	H	0.169849	0.300964	0.849170
	H2105	H	0.231713	0.245427	0.848670
	H2106	H	0.142607	0.386199	0.654844
	H2107	H	0.195613	0.238798	0.652130
	H2108	H	0.166948	0.241622	0.598304
	H2109	H	0.229497	0.303909	0.600082
	H2110	H	0.131467	0.229340	0.901104
	H2111	H	0.193800	0.292251	0.902510
	H2112	H	0.131307	0.230209	0.597350
	H2113	H	0.193893	0.291961	0.597964
	H2114	H	0.167020	0.241674	0.901802
	H2115	H	0.229465	0.304835	0.903121
	H2116	H	0.151890	0.360050	1.002262
	H2117	H	0.207524	0.241733	0.849188
	H2118	H	0.161227	0.329811	0.577674
	H2119	H	0.219730	0.245972	0.650753
	H2120	H	0.161361	0.330401	1.001274
	H2121	H	0.219853	0.245596	0.849615
	H2122	H	0.151743	0.359335	0.578699
	H2123	H	0.207387	0.241882	0.650702
	H2124	H	0.155252	0.241623	0.601266
	H2125	H	0.217759	0.303924	0.603046
	H2126	H	0.142831	0.238403	0.898681
	H2127	H	0.205286	0.301055	0.899472
	H2128	H	0.142851	0.239191	0.600849
	H2129	H	0.205371	0.301061	0.602488
	H2130	H	0.155213	0.240965	0.899266
	H2131	H	0.217703	0.303673	0.899794
	Co2132	Co	0.243789	0.322729	0.625607
	Co2133	Co	0.181271	0.260251	0.625148
	Co2134	Co	0.118793	0.197938	0.874864
	Co2135	Co	0.181289	0.260281	0.874625
	C2136	C	0.141712	0.389426	0.926773
	C2137	C	0.194500	0.240270	0.922047
	C2138	C	0.170735	0.298171	0.577753
	C2139	C	0.232748	0.243814	0.578008
	C2140	C	0.170734	0.298014	0.923137
	C2141	C	0.232867	0.243706	0.923071
	C2142	C	0.141758	0.389403	0.580777
	C2143	C	0.194390	0.239994	0.577425
	C2144	C	0.168219	0.242122	0.672739
	C2145	C	0.230700	0.304785	0.673932
	C2146	C	0.130391	0.227427	0.826877
	C2147	C	0.192818	0.290232	0.827992
	C2148	C	0.130300	0.227956	0.672077
	C2149	C	0.192883	0.289990	0.672906
	C2150	C	0.168240	0.242216	0.827756
	C2151	C	0.230686	0.305286	0.828794
	C2152	C	0.145117	0.378746	1.003577
	C2153	C	0.198834	0.239189	0.500028
	C2154	C	0.167471	0.308799	1.000951
	C2155	C	0.228341	0.246569	0.500560
	C2156	C	0.163796	0.241116	0.750366
	C2157	C	0.226309	0.303884	0.751519
	C2158	C	0.134468	0.233279	0.749350
	C2159	C	0.196938	0.295713	0.750566
	C2160	C	0.150758	0.360970	1.002872
	C2161	C	0.206302	0.241176	0.500237
	C2162	C	0.161842	0.326593	1.001621
	C2163	C	0.220830	0.246344	0.500280
	C2164	C	0.156332	0.240778	0.750312
	C2165	C	0.218810	0.303261	0.751433
	C2166	C	0.141772	0.238047	0.749472
	C2167	C	0.204257	0.300424	0.750899
	C2168	C	0.153779	0.352944	1.002318
	C2169	C	0.210170	0.242484	0.916066
	C2170	C	0.159074	0.335880	0.544623
	C2171	C	0.217086	0.245061	0.583875
	C2172	C	0.159167	0.336201	1.001603
	C2173	C	0.217208	0.244802	0.916279
	C2174	C	0.153690	0.352614	0.545236
	C2175	C	0.210048	0.242682	0.583920
	C2176	C	0.152592	0.240823	0.667079
	C2177	C	0.215071	0.303079	0.668497
	C2178	C	0.145495	0.239140	0.832789
	C2179	C	0.207963	0.301629	0.833815
	C2180	C	0.145515	0.239473	0.666588
	C2181	C	0.208008	0.301716	0.668359
	C2182	C	0.152571	0.240541	0.833125
	C2183	C	0.215023	0.303040	0.834376
	N2184	N	0.136901	0.405198	0.956741
	N2185	N	0.187909	0.242577	0.950723
	N2186	N	0.175559	0.282309	0.548532
	N2187	N	0.239242	0.239034	0.548986
	N2188	N	0.175571	0.282153	0.952030
	N2189	N	0.239343	0.238597	0.951955
	N2190	N	0.136931	0.405263	0.551995
	N2191	N	0.187783	0.242413	0.548848
	N2192	N	0.174756	0.244114	0.701335
	N2193	N	0.237248	0.306905	0.702513
	N2194	N	0.124447	0.218587	0.797899
	N2195	N	0.186911	0.281085	0.798124
	N2196	N	0.124377	0.218923	0.701500
	N2197	N	0.186958	0.280960	0.701659
	N2198	N	0.174760	0.244181	0.798919
	N2199	N	0.237236	0.307210	0.799816
	H2200	H	0.143293	0.504823	0.351988
	H2201	H	0.205003	0.448620	0.350744
	H2202	H	0.179401	0.510655	0.155027
	H2203	H	0.232401	0.363469	0.152358
	H2204	H	0.179254	0.510365	0.350824
	H2205	H	0.232334	0.363626	0.349660
	H2206	H	0.143414	0.504838	0.156937
	H2207	H	0.205012	0.448032	0.151942
	H2208	H	0.181045	0.457497	0.101789
	H2209	H	0.243535	0.520857	0.100505
	H2210	H	0.145516	0.445875	0.406323
	H2211	H	0.207975	0.508336	0.403876
	H2212	H	0.145465	0.446013	0.102203
	H2213	H	0.208008	0.508029	0.099782
	H2214	H	0.181166	0.457507	0.405363
	H2215	H	0.243605	0.520355	0.404610
	H2216	H	0.155188	0.503722	0.654020
	H2217	H	0.213711	0.420329	0.511960
	H2218	H	0.167631	0.507933	0.154246
	H2219	H	0.223539	0.391384	0.077370
	H2220	H	0.167501	0.507906	0.653664
	H2221	H	0.223275	0.391008	0.511637
	H2222	H	0.155296	0.503847	0.155451
	H2223	H	0.213981	0.420811	0.077512
	H2224	H	0.169658	0.448908	0.105447
	H2225	H	0.232176	0.511743	0.103572
	H2226	H	0.157342	0.445472	0.402336
	H2227	H	0.219761	0.508732	0.401112
	H2228	H	0.157261	0.446722	0.105661
	H2229	H	0.219785	0.508767	0.103417
	H2230	H	0.169721	0.447790	0.402219
	H2231	H	0.232147	0.511489	0.401533
	Co2232	Co	0.256246	0.552389	0.127411
	Co2233	Co	0.193714	0.489336	0.127291
	Co2234	Co	0.131205	0.427672	0.379786
	Co2235	Co	0.193700	0.489514	0.376902
	C2236	C	0.142141	0.506121	0.426671
	C2237	C	0.204176	0.451619	0.424687
	C2238	C	0.180600	0.509801	0.080303
	C2239	C	0.233289	0.360760	0.078606
	C2240	C	0.180481	0.509634	0.424961
	C2241	C	0.233260	0.360681	0.423709
	C2242	C	0.142199	0.506255	0.082734
	C2243	C	0.204170	0.451387	0.078341
	C2244	C	0.182134	0.459487	0.175762
	C2245	C	0.244647	0.522784	0.174733
	C2246	C	0.144312	0.445421	0.332011
	C2247	C	0.206773	0.507596	0.329798
	C2248	C	0.144303	0.445445	0.176798
	C2249	C	0.206790	0.507547	0.174409
	C2250	C	0.182181	0.459496	0.330770
	C2251	C	0.244674	0.522549	0.330097
	C2252	C	0.146554	0.503460	0.503870
	C2253	C	0.207519	0.441015	0.000955
	C2254	C	0.176056	0.510829	0.502698
	C2255	C	0.230000	0.371640	0.001133
	C2256	C	0.178073	0.453818	0.253503
	C2257	C	0.240529	0.517058	0.252359
	C2258	C	0.148717	0.446466	0.254357
	C2259	C	0.211226	0.508733	0.252125
	C2260	C	0.154068	0.503680	0.503541
	C2261	C	0.213188	0.423314	0.000972
	C2262	C	0.168571	0.508992	0.502913
	C2263	C	0.224305	0.389186	0.001308
	C2264	C	0.170761	0.449134	0.253808
	C2265	C	0.233236	0.512305	0.252572
	C2266	C	0.156186	0.446692	0.254035
	C2267	C	0.218683	0.509298	0.252299
	C2268	C	0.157828	0.504650	0.587300
	C2269	C	0.215943	0.414363	0.507507
	C2270	C	0.164940	0.507302	0.087745
	C2271	C	0.221462	0.397829	0.043793
	C2272	C	0.164849	0.507226	0.586896
	C2273	C	0.221349	0.397743	0.507141
	C2274	C	0.157892	0.504874	0.088397
	C2275	C	0.216052	0.414424	0.043928
	C2276	C	0.167007	0.448282	0.171210
	C2277	C	0.229532	0.511017	0.169594
	C2278	C	0.159982	0.446305	0.336699
	C2279	C	0.222433	0.509447	0.335405
	C2280	C	0.159934	0.446967	0.171171
	C2281	C	0.222445	0.509579	0.169341
	C2282	C	0.167052	0.447583	0.336510
	C2283	C	0.229513	0.510974	0.335470
	N2284	N	0.135660	0.511165	0.456092
	N2285	N	0.199354	0.467432	0.454253
	N2286	N	0.187187	0.507299	0.051210
	N2287	N	0.238127	0.345000	0.048881
	N2288	N	0.187084	0.507185	0.453079
	N2289	N	0.238102	0.344785	0.452809
	N2290	N	0.135731	0.511134	0.053735
	N2291	N	0.199349	0.467328	0.049601
	N2292	N	0.188031	0.468685	0.204237
	N2293	N	0.250572	0.531697	0.204081
	N2294	N	0.137747	0.443527	0.303304
	N2295	N	0.200241	0.505507	0.300865
	N2296	N	0.137748	0.443538	0.205544
	N2297	N	0.200268	0.505316	0.203269
	N2298	N	0.188072	0.468561	0.301244
	N2299	N	0.250571	0.531598	0.300727
	H2300	H	0.143414	0.504687	0.853133
	H2301	H	0.205169	0.449145	0.850512
	H2302	H	0.179344	0.510851	0.654536
	H2303	H	0.232562	0.364197	0.652080
	H2304	H	0.179304	0.510816	0.850421
	H2305	H	0.232517	0.364116	0.849765
	H2306	H	0.143404	0.504952	0.656524
	H2307	H	0.205114	0.449070	0.652909
	H2308	H	0.181036	0.457840	0.600248
	H2309	H	0.243579	0.520221	0.600896
	H2310	H	0.145525	0.445806	0.905486
	H2311	H	0.208018	0.508377	0.904530
	H2312	H	0.145446	0.446110	0.601923
	H2313	H	0.208033	0.507941	0.600228
	H2314	H	0.181138	0.457966	0.904408
	H2315	H	0.243644	0.520066	0.904632
	H2316	H	0.155187	0.504231	0.854014
	H2317	H	0.213922	0.420754	0.924752
	H2318	H	0.167465	0.508198	0.352461
	H2319	H	0.223873	0.392438	0.490923
	H2320	H	0.167484	0.508343	0.852989
	H2321	H	0.223486	0.391466	0.925461
	H2322	H	0.155112	0.503935	0.353178
	H2323	H	0.214321	0.421824	0.491925
	H2324	H	0.169690	0.448270	0.604660
	H2325	H	0.232170	0.510937	0.901776
	H2326	H	0.157270	0.446893	0.901622
	H2327	H	0.219800	0.508387	0.603825
	H2328	H	0.157235	0.445914	0.604569
	H2329	H	0.219754	0.508466	0.901172
	H2330	H	0.169667	0.449355	0.901616
	H2331	H	0.232182	0.511065	0.604785
	Co2332	Co	0.256189	0.552039	0.628102
	Co2333	Co	0.193672	0.489530	0.627158
	Co2334	Co	0.131213	0.427357	0.879878
	Co2335	Co	0.193709	0.489672	0.877042
	C2336	C	0.142198	0.506080	0.927430
	C2337	C	0.204256	0.451900	0.924195
	C2338	C	0.180528	0.509955	0.579916
	C2339	C	0.233380	0.360969	0.577855
	C2340	C	0.180554	0.509932	0.925068
	C2341	C	0.233348	0.361087	0.923611
	C2342	C	0.142193	0.506151	0.581901
	C2343	C	0.204231	0.451818	0.579240
	C2344	C	0.182098	0.459888	0.674933
	C2345	C	0.244634	0.522200	0.675234
	C2346	C	0.144270	0.445405	0.831139
	C2347	C	0.206774	0.507740	0.829852
	C2348	C	0.144245	0.445539	0.676332
	C2349	C	0.206782	0.507574	0.674366
	C2350	C	0.182141	0.459870	0.829983
	C2351	C	0.244663	0.522088	0.830533
	C2352	C	0.146624	0.503499	1.005158
	C2353	C	0.207551	0.441027	0.501926
	C2354	C	0.176110	0.510905	1.003088
	C2355	C	0.230025	0.371554	0.500953
	C2356	C	0.178026	0.454363	0.752485
	C2357	C	0.240534	0.516543	0.752948
	C2358	C	0.148673	0.446637	0.753567
	C2359	C	0.211190	0.508735	0.752142
	C2360	C	0.154113	0.503874	1.004990
	C2361	C	0.213243	0.423453	0.501953
	C2362	C	0.168647	0.509003	1.003660
	C2363	C	0.224373	0.389305	0.501313
	C2364	C	0.170707	0.449625	0.752810
	C2365	C	0.233223	0.511840	0.753254
	C2366	C	0.156157	0.447010	0.753258
	C2367	C	0.218664	0.509107	0.752412
	C2368	C	0.157825	0.505154	0.920803
	C2369	C	0.216019	0.414522	0.958243
	C2370	C	0.164823	0.507372	0.419185
	C2371	C	0.221666	0.398526	0.495824
	C2372	C	0.164874	0.507497	0.920096
	C2373	C	0.221423	0.397900	0.958565
	C2374	C	0.157799	0.504897	0.419552
	C2375	C	0.216250	0.415122	0.496243
	C2376	C	0.166966	0.448122	0.670064
	C2377	C	0.229493	0.510594	0.835944
	C2378	C	0.159928	0.447310	0.836064
	C2379	C	0.222438	0.509180	0.669666
	C2380	C	0.159898	0.446791	0.670210
	C2381	C	0.222417	0.509159	0.835544
	C2382	C	0.166991	0.448673	0.835963
	C2383	C	0.229510	0.510530	0.670332
	N2384	N	0.135725	0.511063	0.956117
	N2385	N	0.199403	0.467622	0.953902
	N2386	N	0.187122	0.507395	0.551050
	N2387	N	0.238172	0.345005	0.548641
	N2388	N	0.187157	0.507376	0.953301
	N2389	N	0.238174	0.345245	0.952952
	N2390	N	0.135690	0.511190	0.553206
	N2391	N	0.199377	0.467493	0.549727
	N2392	N	0.188028	0.468944	0.703874
	N2393	N	0.250555	0.531237	0.704508
	N2394	N	0.137736	0.443219	0.802638
	N2395	N	0.200236	0.505663	0.800879
	N2396	N	0.137723	0.443273	0.705239
	N2397	N	0.200232	0.505664	0.702994
	N2398	N	0.188064	0.468925	0.800368
	N2399	N	0.250556	0.531245	0.800863
	H2400	H	0.141666	0.618549	0.352218
	H2401	H	0.205881	0.567398	0.350037
	H2402	H	0.177787	0.618507	0.154188
	H2403	H	0.241808	0.573280	0.154094
	H2404	H	0.177789	0.618487	0.349643
	H2405	H	0.241869	0.573347	0.350455
	H2406	H	0.141796	0.619121	0.157221
	H2407	H	0.205921	0.567417	0.154449
	H2408	H	0.178388	0.566525	0.100170
	H2409	H	0.240916	0.628822	0.099596
	H2410	H	0.142560	0.557665	0.406194
	H2411	H	0.205038	0.620413	0.403347
	H2412	H	0.142428	0.557985	0.101691
	H2413	H	0.205030	0.620267	0.098831
	H2414	H	0.178461	0.566228	0.405055
	H2415	H	0.240970	0.628624	0.404922
	H2416	H	0.153572	0.618164	0.352135
	H2417	H	0.217753	0.566138	0.652862
	H2418	H	0.165842	0.619614	-0.148792
	H2419	H	0.230053	0.570707	0.152659
	H2420	H	0.165893	0.620419	0.351231
	H2421	H	0.230036	0.570154	0.652837
	H2422	H	0.153476	0.617685	-0.147459
	H2423	H	0.217747	0.566536	0.152580
	H2424	H	0.166642	0.562726	0.101923
	H2425	H	0.229169	0.625574	0.101065
	H2426	H	0.154329	0.561932	0.404760
	H2427	H	0.216742	0.624526	0.402761
	H2428	H	0.154247	0.561685	0.102035
	H2429	H	0.216794	0.624429	0.100373
	H2430	H	0.166735	0.563218	0.404101
	H2431	H	0.229117	0.625516	0.403090
	Co2432	Co	0.254290	0.655037	0.126890
	Co2433	Co	0.191778	0.592753	0.126540
	Co2434	Co	0.129277	0.530428	0.380542
	Co2435	Co	0.191831	0.592826	0.376981
	C2436	C	0.140551	0.619909	0.426827
	C2437	C	0.204715	0.568811	0.424660
	C2438	C	0.178945	0.617237	0.079534
	C2439	C	0.243061	0.572461	0.079519
	C2440	C	0.178957	0.617290	0.424429
	C2441	C	0.243085	0.572323	0.424944
	C2442	C	0.140568	0.620272	0.082483
	C2443	C	0.204723	0.568756	0.079900
	C2444	C	0.179541	0.567894	0.174781
	C2445	C	0.242064	0.630219	0.174449
	C2446	C	0.141450	0.556153	0.331752
	C2447	C	0.203897	0.618798	0.328918
	C2448	C	0.141392	0.556243	0.176611
	C2449	C	0.203896	0.618646	0.173443
	C2450	C	0.179578	0.567796	0.330193
	C2451	C	0.242089	0.630097	0.330360
	C2452	C	0.144991	0.617217	0.504288
	C2453	C	0.209147	0.565966	0.002224
	C2454	C	0.174581	0.620258	0.502305
	C2455	C	0.238616	0.573377	0.001867
	C2456	C	0.175252	0.564671	0.252664
	C2457	C	0.237731	0.626916	0.252441
	C2458	C	0.145713	0.559763	0.253911
	C2459	C	0.208185	0.622383	0.251214
	C2460	C	0.152487	0.617201	0.503772
	C2461	C	0.216647	0.566145	0.002291
	C2462	C	0.167072	0.620520	0.502712
	C2463	C	0.231158	0.571461	0.001884
	C2464	C	0.167778	0.562796	0.252953
	C2465	C	0.230263	0.625356	0.252205
	C2466	C	0.153150	0.561870	0.253515
	C2467	C	0.215620	0.624554	0.251580
	C2468	C	0.156213	0.618392	0.419236
	C2469	C	0.220359	0.567103	0.585765
	C2470	C	0.163218	0.619412	-0.081395
	C2471	C	0.227420	0.569900	0.085664
	C2472	C	0.163282	0.619860	0.418644
	C2473	C	0.227398	0.569602	0.585920
	C2474	C	0.156160	0.618112	-0.080543
	C2475	C	0.220382	0.567415	0.085862
	C2476	C	0.163971	0.562481	0.168943
	C2477	C	0.226509	0.625226	0.167985
	C2478	C	0.156943	0.562217	0.337360
	C2479	C	0.219387	0.624773	0.335715
	C2480	C	0.156895	0.562004	0.169280
	C2481	C	0.219417	0.624725	0.167569
	C2482	C	0.164032	0.562776	0.337246
	C2483	C	0.226484	0.625210	0.336000
	N2484	N	0.134088	0.624971	0.456151
	N2485	N	0.198251	0.573881	0.453206
	N2486	N	0.185406	0.611883	0.050408
	N2487	N	0.249662	0.569975	0.050845
	N2488	N	0.185436	0.612072	0.453084
	N2489	N	0.249671	0.569925	0.453750
	N2490	N	0.134092	0.625356	0.054131
	N2491	N	0.198247	0.573791	0.050683
	N2492	N	0.185865	0.573531	0.203541
	N2493	N	0.248380	0.635843	0.203638
	N2494	N	0.135170	0.549907	0.303574
	N2495	N	0.197656	0.612307	0.300153
	N2496	N	0.135151	0.549830	0.206122
	N2497	N	0.197645	0.612226	0.202671
	N2498	N	0.185894	0.573503	0.300934
	N2499	N	0.248379	0.635880	0.300955
	H2500	H	0.141607	0.618331	0.852433
	H2501	H	0.205938	0.567446	0.849454
	H2502	H	0.177838	0.619284	0.653837
	H2503	H	0.241783	0.573003	0.654793
	H2504	H	0.177771	0.618396	0.849695
	H2505	H	0.241821	0.573174	0.849313
	H2506	H	0.141748	0.618391	0.656164
	H2507	H	0.205853	0.567247	0.654224
	H2508	H	0.178444	0.566975	0.600116
	H2509	H	0.241005	0.628645	0.600125
	H2510	H	0.142604	0.557461	0.906240
	H2511	H	0.205064	0.620235	0.904678
	H2512	H	0.142408	0.557903	0.602214
	H2513	H	0.205103	0.620160	0.600183
	H2514	H	0.178515	0.566327	0.904129
	H2515	H	0.240937	0.629021	0.905111
	H2516	H	0.153612	0.617690	1.155410
	H2517	H	0.217749	0.566167	0.851890
	H2518	H	0.166028	0.619695	0.653811
	H2519	H	0.230053	0.570212	0.351063
	H2520	H	0.165984	0.620040	1.153888
	H2521	H	0.230061	0.570264	0.851400
	H2522	H	0.153656	0.616988	0.654901
	H2523	H	0.217768	0.566258	0.351044
	H2524	H	0.166642	0.563010	0.601315
	H2525	H	0.229190	0.625324	0.600962
	H2526	H	0.154309	0.562006	0.904480
	H2527	H	0.216823	0.624431	0.903772
	H2528	H	0.154238	0.561828	0.601790
	H2529	H	0.216828	0.624330	0.601135
	H2530	H	0.166678	0.563536	0.903689
	H2531	H	0.229199	0.625720	0.903888
	Co2532	Co	0.254354	0.655159	0.627346
	Co2533	Co	0.191825	0.592911	0.626715
	Co2534	Co	0.129328	0.530091	0.880102
	Co2535	Co	0.191834	0.592724	0.877027
	C2536	C	0.140496	0.619908	0.927333
	C2537	C	0.204735	0.568637	0.924339
	C2538	C	0.178989	0.617470	0.579412
	C2539	C	0.243048	0.572226	0.580255
	C2540	C	0.178909	0.616951	0.924261
	C2541	C	0.243059	0.572366	0.924002
	C2542	C	0.140585	0.619834	0.581901
	C2543	C	0.204688	0.568558	0.579645
	C2544	C	0.179573	0.568244	0.674453
	C2545	C	0.242117	0.630255	0.674735
	C2546	C	0.141499	0.555823	0.831717
	C2547	C	0.203960	0.618680	0.829738
	C2548	C	0.141384	0.556224	0.676581
	C2549	C	0.203975	0.618634	0.674579
	C2550	C	0.179615	0.567746	0.829713
	C2551	C	0.242078	0.630520	0.830128
	C2552	C	0.144935	0.617397	1.004748
	C2553	C	0.209145	0.565944	0.502062
	C2554	C	0.174531	0.619843	1.002196
	C2555	C	0.238588	0.573244	0.502346
	C2556	C	0.175270	0.564823	0.752162
	C2557	C	0.237781	0.627103	0.752488
	C2558	C	0.145718	0.559605	0.753644
	C2559	C	0.208260	0.622315	0.752370
	C2560	C	0.152440	0.617300	1.004149
	C2561	C	0.216620	0.566136	0.501906
	C2562	C	0.167010	0.620263	1.002617
	C2563	C	0.231135	0.571320	0.501932
	C2564	C	0.167798	0.562952	0.752457
	C2565	C	0.230326	0.625349	0.752475
	C2566	C	0.153155	0.561783	0.753266
	C2567	C	0.215711	0.624499	0.752494
	C2568	C	0.156224	0.618136	1.087894
	C2569	C	0.220389	0.567227	0.918589
	C2570	C	0.163341	0.619466	0.587085
	C2571	C	0.227417	0.569646	0.418037
	C2572	C	0.163279	0.619628	1.087151
	C2573	C	0.227419	0.569701	0.918219
	C2574	C	0.156272	0.617796	0.587539
	C2575	C	0.220368	0.567265	0.418145
	C2576	C	0.164004	0.562590	0.668462
	C2577	C	0.226558	0.625107	0.668221
	C2578	C	0.156948	0.562172	0.837227
	C2579	C	0.219469	0.624757	0.836679
	C2580	C	0.156907	0.562032	0.668716
	C2581	C	0.219477	0.624679	0.668345
	C2582	C	0.164022	0.562965	0.836701
	C2583	C	0.226555	0.625323	0.836772
	N2584	N	0.134031	0.625072	0.956674
	N2585	N	0.198261	0.573835	0.953494
	N2586	N	0.185449	0.612142	0.550338
	N2587	N	0.249657	0.569885	0.551991
	N2588	N	0.185404	0.611827	0.952939
	N2589	N	0.249663	0.569916	0.952724
	N2590	N	0.134105	0.624855	0.553513
	N2591	N	0.198232	0.573806	0.550924
	N2592	N	0.185910	0.573789	0.703374
	N2593	N	0.248415	0.636060	0.703846
	N2594	N	0.135215	0.549710	0.803658
	N2595	N	0.197714	0.612251	0.800470
	N2596	N	0.135157	0.549738	0.706063
	N2597	N	0.197717	0.612300	0.703405
	N2598	N	0.185931	0.573548	0.800777
	N2599	N	0.248407	0.636168	0.801353
	H2600	H	0.140038	0.731426	0.351223
	H2601	H	0.204264	0.681048	0.350058
	H2602	H	0.176089	0.731926	0.154036
	H2603	H	0.240262	0.680984	0.154673
	H2604	H	0.176085	0.731048	0.349377
	H2605	H	0.240379	0.680971	0.349945
	H2606	H	0.140021	0.730947	0.156126
	H2607	H	0.204210	0.681681	0.154651
	H2608	H	0.176808	0.679572	0.100219
	H2609	H	0.239470	0.740915	0.100262
	H2610	H	0.141057	0.671125	0.406760
	H2611	H	0.203510	0.733573	0.403806
	H2612	H	0.140855	0.671462	0.102383
	H2613	H	0.203380	0.734095	0.099774
	H2614	H	0.176977	0.678386	0.404460
	H2615	H	0.239350	0.741886	0.404748
	H2616	H	0.151826	0.730595	0.351079
	H2617	H	0.216092	0.680296	0.351006
	H2618	H	0.164274	0.732062	0.154099
	H2619	H	0.228428	0.682426	0.153819
	H2620	H	0.164200	0.732812	0.350570
	H2621	H	0.228461	0.682450	0.350841
	H2622	H	0.151850	0.729848	0.154814
	H2623	H	0.216077	0.680661	0.153834
	H2624	H	0.165129	0.675014	0.100797
	H2625	H	0.227565	0.737934	0.403528
	H2626	H	0.152771	0.675247	0.404967
	H2627	H	0.215210	0.736885	0.099747
	H2628	H	0.152716	0.674673	0.101558
	H2629	H	0.215143	0.737587	0.403195
	H2630	H	0.165214	0.675992	0.403838
	H2631	H	0.227631	0.737512	0.100091
	Co2632	Co	0.252598	0.768795	0.126705
	Co2633	Co	0.190111	0.706585	0.126961
	Co2634	Co	0.127713	0.644209	0.380539
	Co2635	Co	0.190177	0.706330	0.377018
	C2636	C	0.138880	0.732589	0.425958
	C2637	C	0.203121	0.682641	0.424835
	C2638	C	0.177226	0.730340	0.079379
	C2639	C	0.241452	0.679739	0.080076
	C2640	C	0.177261	0.730093	0.424107
	C2641	C	0.241517	0.679607	0.424805
	C2642	C	0.138827	0.732339	0.081623
	C2643	C	0.203054	0.682789	0.079945
	C2644	C	0.177991	0.680900	0.174470
	C2645	C	0.240513	0.742750	0.174799
	C2646	C	0.139879	0.669756	0.332173
	C2647	C	0.202319	0.732116	0.329292
	C2648	C	0.139787	0.669921	0.176714
	C2649	C	0.202277	0.732238	0.173776
	C2650	C	0.178079	0.680251	0.329964
	C2651	C	0.240437	0.743433	0.329971
	C2652	C	0.143290	0.729826	0.503365
	C2653	C	0.207460	0.679992	0.002150
	C2654	C	0.172865	0.732974	0.501870
	C2655	C	0.237073	0.682639	0.002156
	C2656	C	0.173732	0.677085	0.252367
	C2657	C	0.236176	0.739450	0.252328
	C2658	C	0.144167	0.673277	0.254030
	C2659	C	0.206591	0.735747	0.251440
	C2660	C	0.150782	0.729885	0.502868
	C2661	C	0.214963	0.679867	0.002157
	C2662	C	0.165359	0.733099	0.502160
	C2663	C	0.229567	0.682891	0.001901
	C2664	C	0.166272	0.675304	0.252368
	C2665	C	0.228717	0.737619	0.251856
	C2666	C	0.151622	0.675082	0.253279
	C2667	C	0.214069	0.737548	0.251375
	C2668	C	0.154513	0.730966	0.418201
	C2669	C	0.218762	0.680691	0.418271
	C2670	C	0.161574	0.731901	0.086931
	C2671	C	0.225783	0.682098	0.086383
	C2672	C	0.161574	0.732379	0.418132
	C2673	C	0.225830	0.681922	0.418271
	C2674	C	0.154509	0.730339	0.087568
	C2675	C	0.218716	0.680790	0.086392
	C2676	C	0.162483	0.675036	0.168231
	C2677	C	0.224921	0.737586	0.336107
	C2678	C	0.155406	0.675235	0.337395
	C2679	C	0.217859	0.737425	0.167101
	C2680	C	0.155379	0.674938	0.168786
	C2681	C	0.217820	0.737613	0.335972
	C2682	C	0.162514	0.675532	0.336934
	C2683	C	0.224960	0.737596	0.167241
	N2684	N	0.132404	0.737502	0.455168
	N2685	N	0.196636	0.687616	0.453612
	N2686	N	0.183696	0.725340	0.050429
	N2687	N	0.247919	0.674336	0.051333
	N2688	N	0.183743	0.725198	0.452723
	N2689	N	0.247958	0.674207	0.453656
	N2690	N	0.132345	0.737567	0.052971
	N2691	N	0.196565	0.687688	0.050998
	N2692	N	0.184281	0.686929	0.203185
	N2693	N	0.246749	0.749207	0.203693
	N2694	N	0.133582	0.663701	0.303644
	N2695	N	0.196035	0.725944	0.300565
	N2696	N	0.133544	0.663819	0.206262
	N2697	N	0.196010	0.726069	0.203163
	N2698	N	0.184339	0.686637	0.300666
	N2699	N	0.246703	0.749599	0.301105
	H2700	H	0.139954	0.731102	0.851877
	H2701	H	0.204207	0.680861	0.850505
	H2702	H	0.176172	0.732192	0.653659
	H2703	H	0.240344	0.680981	0.654818
	H2704	H	0.176049	0.731237	0.849604
	H2705	H	0.240341	0.681612	0.850081
	H2706	H	0.140053	0.730716	0.655781
	H2707	H	0.204235	0.681677	0.654869
	H2708	H	0.176764	0.679835	0.599042
	H2709	H	0.239337	0.741125	0.600267
	H2710	H	0.140924	0.671189	0.906751
	H2711	H	0.203404	0.733725	0.904495
	H2712	H	0.140850	0.670827	0.601520
	H2713	H	0.203437	0.733758	0.599984
	H2714	H	0.176928	0.678586	0.903753
	H2715	H	0.239313	0.741788	0.904430
	H2716	H	0.151770	0.730341	0.851524
	H2717	H	0.216093	0.680104	0.850949
	H2718	H	0.164296	0.732408	0.653888
	H2719	H	0.228506	0.682443	0.654150
	H2720	H	0.164139	0.732559	0.850699
	H2721	H	0.228474	0.682277	0.850595
	H2722	H	0.151929	0.729971	0.654340
	H2723	H	0.216151	0.680030	0.654340
	H2724	H	0.164979	0.675547	0.600720
	H2725	H	0.227558	0.737881	0.600433
	H2726	H	0.152730	0.674581	0.904603
	H2727	H	0.215169	0.737364	0.903970
	H2728	H	0.152587	0.674546	0.601572
	H2729	H	0.215148	0.737361	0.600712
	H2730	H	0.165108	0.675662	0.903945
	H2731	H	0.227564	0.738011	0.903706
	Co2732	Co	0.252628	0.768557	0.626590
	Co2733	Co	0.190137	0.706499	0.626517
	Co2734	Co	0.127609	0.643871	0.880554
	Co2735	Co	0.190136	0.706197	0.876717
	C2736	C	0.138805	0.732434	0.926244
	C2737	C	0.203040	0.682361	0.924799
	C2738	C	0.177307	0.730648	0.579095
	C2739	C	0.241513	0.679623	0.580149
	C2740	C	0.177197	0.729947	0.924184
	C2741	C	0.241486	0.679842	0.924651
	C2742	C	0.138893	0.732209	0.581118
	C2743	C	0.203107	0.682826	0.580079
	C2744	C	0.177922	0.680990	0.673950
	C2745	C	0.240479	0.742933	0.674600
	C2746	C	0.139778	0.669582	0.832125
	C2747	C	0.202259	0.732216	0.829900
	C2748	C	0.139731	0.669415	0.676579
	C2749	C	0.202279	0.732205	0.674577
	C2750	C	0.178001	0.680478	0.828970
	C2751	C	0.240440	0.743301	0.830019
	C2752	C	0.143210	0.729671	1.003782
	C2753	C	0.207519	0.680153	0.502584
	C2754	C	0.172799	0.732777	1.002005
	C2755	C	0.237119	0.682444	0.502279
	C2756	C	0.173642	0.677320	0.751539
	C2757	C	0.236145	0.739567	0.752161
	C2758	C	0.144061	0.672997	0.753903
	C2759	C	0.206579	0.735716	0.752126
	C2760	C	0.150715	0.729565	1.003465
	C2761	C	0.215016	0.679863	0.502572
	C2762	C	0.165295	0.732826	1.002473
	C2763	C	0.229610	0.682761	0.502368
	C2764	C	0.166176	0.675510	0.752149
	C2765	C	0.228692	0.737693	0.752052
	C2766	C	0.151521	0.674898	0.753177
	C2767	C	0.214037	0.737491	0.752229
	C2768	C	0.154449	0.730519	0.918691
	C2769	C	0.218744	0.680601	0.918009
	C2770	C	0.161635	0.732076	0.586558
	C2771	C	0.225858	0.681959	0.586777
	C2772	C	0.161512	0.732085	0.918310
	C2773	C	0.225805	0.682084	0.917781
	C2774	C	0.154576	0.730595	0.586992
	C2775	C	0.218794	0.680629	0.586904
	C2776	C	0.162355	0.675282	0.668215
	C2777	C	0.224916	0.737619	0.667744
	C2778	C	0.155343	0.674958	0.837152
	C2779	C	0.217818	0.737628	0.836621
	C2780	C	0.155256	0.674981	0.668699
	C2781	C	0.217814	0.737510	0.667967
	C2782	C	0.162437	0.675368	0.836729
	C2783	C	0.224918	0.737760	0.836493
	N2784	N	0.132325	0.737616	0.955568
	N2785	N	0.196565	0.687490	0.953632
	N2786	N	0.183785	0.725553	0.550181
	N2787	N	0.247967	0.674234	0.551361
	N2788	N	0.183677	0.725043	0.952992
	N2789	N	0.247934	0.674484	0.953739
	N2790	N	0.132405	0.737266	0.552663
	N2791	N	0.196616	0.687617	0.550890
	N2792	N	0.184204	0.687001	0.702616
	N2793	N	0.246736	0.749192	0.703508
	N2794	N	0.133488	0.663322	0.803547
	N2795	N	0.195977	0.726053	0.800868
	N2796	N	0.133463	0.663209	0.706093
	N2797	N	0.196028	0.725889	0.703585
	N2798	N	0.184259	0.686709	0.800030
	N2799	N	0.246702	0.749466	0.800812
	H2800	H	0.138257	0.843740	0.350405
	H2801	H	0.202474	0.793298	0.348786
	H2802	H	0.174277	0.844480	0.152960
	H2803	H	0.238527	0.793621	0.154682
	H2804	H	0.174313	0.843701	0.349965
	H2805	H	0.238615	0.794529	0.350617
	H2806	H	0.138187	0.843612	0.154553
	H2807	H	0.202373	0.793556	0.154619
	H2808	H	0.175115	0.791921	0.099012
	H2809	H	0.237657	0.853677	0.099898
	H2810	H	0.139286	0.783529	0.405801
	H2811	H	0.201755	0.845491	0.404563
	H2812	H	0.139137	0.783320	0.101210
	H2813	H	0.201684	0.846315	0.099586
	H2814	H	0.175237	0.790874	0.403382
	H2815	H	0.237571	0.854446	0.404078
	H2816	H	0.150111	0.842615	0.350015
	H2817	H	0.214422	0.792939	0.349904
	H2818	H	0.162365	0.844425	0.153361
	H2819	H	0.226601	0.794864	0.153754
	H2820	H	0.162453	0.845262	0.349706
	H2821	H	0.226756	0.795459	0.350920
	H2822	H	0.150007	0.842136	0.153750
	H2823	H	0.214274	0.792786	0.153857
	H2824	H	0.163429	0.787880	0.403465
	H2825	H	0.225896	0.850573	0.403614
	H2826	H	0.150940	0.786697	0.100349
	H2827	H	0.213502	0.849472	0.099800
	H2828	H	0.151009	0.787573	0.403828
	H2829	H	0.213498	0.849904	0.403472
	H2830	H	0.163364	0.787178	0.099406
	H2831	H	0.225907	0.849913	0.100076
	Co2832	Co	0.250901	0.881356	0.126206
	Co2833	Co	0.188383	0.819269	0.126086
	Co2834	Co	0.125957	0.756450	0.379984
	Co2835	Co	0.188426	0.818596	0.376439
	C2836	C	0.137095	0.844854	0.424904
	C2837	C	0.201350	0.794655	0.423671
	C2838	C	0.175440	0.842792	0.078337
	C2839	C	0.239662	0.792499	0.079937
	C2840	C	0.175493	0.842390	0.423657
	C2841	C	0.239742	0.793020	0.424859
	C2842	C	0.137000	0.845162	0.079905
	C2843	C	0.201235	0.794996	0.079848
	C2844	C	0.176265	0.793236	0.173456
	C2845	C	0.238791	0.855367	0.174054
	C2846	C	0.138115	0.782047	0.331000
	C2847	C	0.200601	0.844233	0.329593
	C2848	C	0.138049	0.781894	0.175795
	C2849	C	0.200576	0.844797	0.173907
	C2850	C	0.176313	0.792731	0.328502
	C2851	C	0.238738	0.855865	0.329731
	C2852	C	0.141533	0.842293	0.502349
	C2853	C	0.205651	0.792427	0.002092
	C2854	C	0.171091	0.845354	0.501170
	C2855	C	0.235251	0.795227	0.002279
	C2856	C	0.171986	0.789349	0.251002
	C2857	C	0.234464	0.852092	0.251880
	C2858	C	0.142400	0.785472	0.252847
	C2859	C	0.204907	0.848043	0.251860
	C2860	C	0.149022	0.842225	0.502104
	C2861	C	0.213161	0.792273	0.002024
	C2862	C	0.163608	0.845465	0.501640
	C2863	C	0.227749	0.795327	0.001994
	C2864	C	0.164539	0.787532	0.251281
	C2865	C	0.227015	0.850195	0.251807
	C2866	C	0.149873	0.787285	0.252053
	C2867	C	0.212366	0.849906	0.251755
	C2868	C	0.152753	0.843101	0.417493
	C2869	C	0.217040	0.793205	0.417613
	C2870	C	0.159722	0.844106	0.085936
	C2871	C	0.223979	0.794574	0.086406
	C2872	C	0.159828	0.844647	0.417342
	C2873	C	0.224094	0.794753	0.418147
	C2874	C	0.152654	0.842693	0.086284
	C2875	C	0.216914	0.793237	0.086539
	C2876	C	0.160778	0.787799	0.335925
	C2877	C	0.223242	0.850355	0.336197
	C2878	C	0.153637	0.786949	0.167450
	C2879	C	0.216143	0.849764	0.167302
	C2880	C	0.153670	0.787539	0.336345
	C2881	C	0.216143	0.850069	0.336074
	C2882	C	0.160735	0.787274	0.167065
	C2883	C	0.223244	0.849947	0.167266
	N2884	N	0.130614	0.849586	0.454165
	N2885	N	0.194876	0.799680	0.452409
	N2886	N	0.181922	0.837931	0.049166
	N2887	N	0.246140	0.787653	0.051014
	N2888	N	0.181977	0.837428	0.452558
	N2889	N	0.246252	0.788053	0.453556
	N2890	N	0.130526	0.850210	0.051146
	N2891	N	0.194747	0.800012	0.050624
	N2892	N	0.182515	0.799591	0.202175
	N2893	N	0.245031	0.861893	0.203305
	N2894	N	0.131820	0.775914	0.302836
	N2895	N	0.194338	0.838140	0.300374
	N2896	N	0.131795	0.775777	0.205643
	N2897	N	0.194320	0.838454	0.203008
	N2898	N	0.182539	0.799286	0.299491
	N2899	N	0.244982	0.862120	0.300597
	H2900	H	0.138160	0.843690	0.849945
	H2901	H	0.202461	0.793709	0.849884
	H2902	H	0.174409	0.844402	0.653234
	H2903	H	0.238602	0.793889	0.654687
	H2904	H	0.174134	0.843415	0.848348
	H2905	H	0.238495	0.794212	0.849961
	H2906	H	0.138332	0.843355	0.654491
	H2907	H	0.202482	0.793662	0.653446
	H2908	H	0.175041	0.791936	0.598850
	H2909	H	0.237638	0.853850	0.598978
	H2910	H	0.139209	0.783785	0.905555
	H2911	H	0.201651	0.846076	0.903920
	H2912	H	0.139173	0.783567	0.600736
	H2913	H	0.201661	0.846113	0.598897
	H2914	H	0.175187	0.790991	0.903068
	H2915	H	0.237558	0.854268	0.903658
	H2916	H	0.149943	0.842720	0.850060
	H2917	H	0.214254	0.792592	0.850540
	H2918	H	0.162513	0.844847	0.653621
	H2919	H	0.226728	0.794439	0.654302
	H2920	H	0.162348	0.844888	0.849424
	H2921	H	0.226647	0.794938	0.850302
	H2922	H	0.150187	0.842552	0.654056
	H2923	H	0.214340	0.791956	0.653647
	H2924	H	0.163254	0.788162	0.600425
	H2925	H	0.225786	0.850644	0.599844
	H2926	H	0.150961	0.787348	0.904228
	H2927	H	0.213378	0.849706	0.903172
	H2928	H	0.150829	0.787569	0.601006
	H2929	H	0.213417	0.849782	0.600055
	H2930	H	0.163353	0.787882	0.903496
	H2931	H	0.225804	0.850483	0.903072
	Co2932	Co	0.250833	0.881355	0.626097
	Co2933	Co	0.188409	0.818744	0.626310
	Co2934	Co	0.125865	0.756472	0.879890
	Co2935	Co	0.188352	0.818685	0.876086
	C2936	C	0.136963	0.845089	0.924509
	C2937	C	0.201274	0.795180	0.924398
	C2938	C	0.175522	0.842740	0.578745
	C2939	C	0.239751	0.792734	0.580218
	C2940	C	0.175368	0.842207	0.923252
	C2941	C	0.239680	0.792878	0.924917
	C2942	C	0.137139	0.844712	0.580230
	C2943	C	0.201357	0.794882	0.578896
	C2944	C	0.176212	0.793149	0.673421
	C2945	C	0.238718	0.855589	0.673913
	C2946	C	0.138038	0.782097	0.831262
	C2947	C	0.200517	0.844528	0.829424
	C2948	C	0.137997	0.781998	0.675492
	C2949	C	0.200518	0.844555	0.674103
	C2950	C	0.176270	0.792728	0.828703
	C2951	C	0.238700	0.855726	0.829190
	C2952	C	0.141392	0.842386	1.002094
	C2953	C	0.205738	0.792096	0.501305
	C2954	C	0.170968	0.845028	1.000979
	C2955	C	0.235363	0.795474	0.502675
	C2956	C	0.171899	0.789474	0.751127
	C2957	C	0.234399	0.852148	0.751707
	C2958	C	0.142331	0.785614	0.753009
	C2959	C	0.204807	0.847987	0.751762
	C2960	C	0.148891	0.842079	1.001961
	C2961	C	0.213263	0.791976	0.501845
	C2962	C	0.163466	0.845080	1.001343
	C2963	C	0.227846	0.795442	0.502787
	C2964	C	0.164446	0.787754	0.751684
	C2965	C	0.226925	0.850326	0.751586
	C2966	C	0.149788	0.787486	0.752591
	C2967	C	0.212269	0.849854	0.751818
	C2968	C	0.152634	0.842986	0.917287
	C2969	C	0.216923	0.793018	0.917601
	C2970	C	0.159874	0.844401	0.586253
	C2971	C	0.224065	0.794239	0.587138
	C2972	C	0.159713	0.844420	0.916978
	C2973	C	0.223996	0.794433	0.917665
	C2974	C	0.152807	0.843014	0.586461
	C2975	C	0.217016	0.792595	0.586659
	C2976	C	0.160628	0.787858	0.667799
	C2977	C	0.223152	0.850234	0.667262
	C2978	C	0.153592	0.787523	0.836707
	C2979	C	0.216043	0.850028	0.836026
	C2980	C	0.153516	0.787638	0.668144
	C2981	C	0.216057	0.849926	0.667441
	C2982	C	0.160695	0.787759	0.836225
	C2983	C	0.223135	0.850288	0.835837
	N2984	N	0.130499	0.850132	0.953881
	N2985	N	0.194781	0.800089	0.953226
	N2986	N	0.181979	0.837578	0.549868
	N2987	N	0.246252	0.787760	0.550885
	N2988	N	0.181873	0.837567	0.951929
	N2989	N	0.246159	0.787978	0.953422
	N2990	N	0.130647	0.849483	0.551786
	N2991	N	0.194880	0.799879	0.550171
	N2992	N	0.182494	0.799172	0.702134
	N2993	N	0.244995	0.861777	0.702912
	N2994	N	0.131774	0.775828	0.802502
	N2995	N	0.194244	0.838328	0.800492
	N2996	N	0.131751	0.775736	0.705264
	N2997	N	0.194236	0.838350	0.703103
	N2998	N	0.182528	0.798982	0.799618
	N2999	N	0.244975	0.861852	0.800286
	H3000	H	0.136463	0.956433	0.348810
	H3001	H	0.200604	0.905696	0.349330
	H3002	H	0.172532	0.956291	0.152296
	H3003	H	0.236802	0.906128	0.153595
	H3004	H	0.172418	0.955897	0.348198
	H3005	H	0.236710	0.906929	0.349432
	H3006	H	0.136503	0.955507	0.153119
	H3007	H	0.200739	0.906263	0.153563
	H3008	H	0.173325	0.903883	0.098544
	H3009	H	0.235875	0.966494	0.098819
	H3010	H	0.137436	0.895990	0.403825
	H3011	H	0.199847	0.958682	0.403092
	H3012	H	0.137347	0.895886	0.099556
	H3013	H	0.199888	0.958214	0.098794
	H3014	H	0.173330	0.903753	0.402211
	H3015	H	0.235832	0.966625	0.403465
	H3016	H	0.148314	0.954731	0.652313
	H3017	H	0.212530	0.904732	0.653050
	H3018	H	0.160710	0.957435	0.151909
	H3019	H	0.224912	0.907414	-0.150750
	H3020	H	0.160664	0.957160	0.652657
	H3021	H	0.224867	0.907114	0.653349
	H3022	H	0.148323	0.955236	0.152238
	H3023	H	0.212564	0.905425	-0.150496
	H3024	H	0.161574	0.900571	0.402647
	H3025	H	0.224083	0.962891	0.402864
	H3026	H	0.149168	0.898920	0.099546
	H3027	H	0.211673	0.961889	0.099398
	H3028	H	0.149200	0.899927	0.402623
	H3029	H	0.211655	0.962268	0.402927
	H3030	H	0.161565	0.899749	0.099217
	H3031	H	0.224054	0.962748	0.099306
	Co3032	Co	0.249121	0.993823	0.126094
	Co3033	Co	0.186603	0.931057	0.125693
	Co3034	Co	0.124189	0.868589	0.378434
	Co3035	Co	0.186604	0.931151	0.375612
	C3036	C	0.135278	0.957488	0.423347
	C3037	C	0.199476	0.907246	0.423755
	C3038	C	0.173712	0.954954	0.077972
	C3039	C	0.237952	0.905019	0.078926
	C3040	C	0.173663	0.954707	0.422541
	C3041	C	0.237925	0.905613	0.424223
	C3042	C	0.135304	0.957061	0.078737
	C3043	C	0.199573	0.907461	0.078857
	C3044	C	0.174463	0.905453	0.173039
	C3045	C	0.236972	0.967959	0.173613
	C3046	C	0.136299	0.894432	0.329681
	C3047	C	0.198763	0.956879	0.328361
	C3048	C	0.136236	0.894476	0.174394
	C3049	C	0.198789	0.956700	0.173349
	C3050	C	0.174467	0.905288	0.328141
	C3051	C	0.236953	0.968032	0.328678
	C3052	C	0.139713	0.954526	0.501073
	C3053	C	0.203942	0.904779	0.001204
	C3054	C	0.169256	0.957746	0.500354
	C3055	C	0.233567	0.907637	0.001252
	C3056	C	0.170151	0.901873	0.250516
	C3057	C	0.232653	0.964602	0.251126
	C3058	C	0.140598	0.897832	0.251540
	C3059	C	0.203060	0.960361	0.251057
	C3060	C	0.147182	0.954512	0.500665
	C3061	C	0.211463	0.904739	0.001191
	C3062	C	0.161764	0.957750	0.500601
	C3063	C	0.226047	0.907777	0.001211
	C3064	C	0.162697	0.900005	0.250877
	C3065	C	0.225185	0.962691	0.251164
	C3066	C	0.148050	0.899580	0.251056
	C3067	C	0.210539	0.962314	0.251203
	C3068	C	0.150956	0.955244	0.584915
	C3069	C	0.215157	0.905399	0.585712
	C3070	C	0.158050	0.956962	0.085000
	C3071	C	0.222280	0.907090	-0.083202
	C3072	C	0.158036	0.956735	0.585036
	C3073	C	0.222219	0.906909	0.585916
	C3074	C	0.150974	0.955472	0.084943
	C3075	C	0.215230	0.905620	-0.083126
	C3076	C	0.158929	0.900196	0.335372
	C3077	C	0.221417	0.962661	0.335556
	C3078	C	0.151809	0.899355	0.166758
	C3079	C	0.214321	0.962227	0.166707
	C3080	C	0.151837	0.899908	0.335230
	C3081	C	0.214329	0.962451	0.335600
	C3082	C	0.158909	0.899680	0.166637
	C3083	C	0.221407	0.962504	0.166772
	N3084	N	0.128806	0.962412	0.452445
	N3085	N	0.192999	0.912352	0.452393
	N3086	N	0.180178	0.949908	0.049291
	N3087	N	0.244441	0.900078	0.050307
	N3088	N	0.180136	0.949944	0.451398
	N3089	N	0.244414	0.900753	0.453028
	N3090	N	0.128823	0.962107	0.050018
	N3091	N	0.193046	0.912284	0.049751
	N3092	N	0.180718	0.911650	0.201994
	N3093	N	0.243255	0.974114	0.202551
	N3094	N	0.130013	0.888316	0.301330
	N3095	N	0.192483	0.950618	0.299403
	N3096	N	0.129977	0.888386	0.203993
	N3097	N	0.192499	0.950505	0.202058
	N3098	N	0.180732	0.911541	0.299234
	N3099	N	0.243236	0.974124	0.299832
	H3100	H	0.136463	0.956145	0.848808
	H3101	H	0.200645	0.905719	0.848668
	H3102	H	0.172542	0.957190	0.652356
	H3103	H	0.236747	0.906487	0.653743
	H3104	H	0.172527	0.956376	0.847985
	H3105	H	0.236798	0.906256	0.849514
	H3106	H	0.136430	0.955303	0.653702
	H3107	H	0.200694	0.906615	0.653265
	H3108	H	0.173289	0.904787	0.599205
	H3109	H	0.235839	0.966602	0.598672
	H3110	H	0.137341	0.896475	0.905261
	H3111	H	0.199897	0.958187	0.903433
	H3112	H	0.137397	0.895484	0.600654
	H3113	H	0.199809	0.959053	0.599264
	H3114	H	0.173439	0.903604	0.903687
	H3115	H	0.235808	0.966446	0.902918
	H3116	H	0.148315	0.954770	0.848905
	H3117	H	0.212572	0.905237	1.153031
	H3118	H	0.160627	0.957714	0.348708
	H3119	H	0.224870	0.907652	0.349859
	H3120	H	0.160648	0.957023	0.848819
	H3121	H	0.224928	0.907167	1.153193
	H3122	H	0.148295	0.955199	0.348684
	H3123	H	0.212523	0.905544	0.349561
	H3124	H	0.161519	0.900378	0.599965
	H3125	H	0.224026	0.962433	0.599160
	H3126	H	0.149191	0.899760	0.904071
	H3127	H	0.211686	0.962084	0.902587
	H3128	H	0.149098	0.899598	0.601075
	H3129	H	0.211654	0.961816	0.599599
	H3130	H	0.161560	0.900408	0.903125
	H3131	H	0.224105	0.962743	0.902355
	Co3132	Co	0.249106	0.993741	0.625862
	Co3133	Co	0.186598	0.931637	0.625523
	Co3134	Co	0.124063	0.869184	0.878574
	Co3135	Co	0.186600	0.931152	0.875534
	C3136	C	0.135287	0.957251	0.923316
	C3137	C	0.199542	0.907217	0.923661
	C3138	C	0.173731	0.955491	0.577830
	C3139	C	0.237905	0.905224	0.579352
	C3140	C	0.173704	0.954933	0.922868
	C3141	C	0.237961	0.905133	0.923875
	C3142	C	0.135266	0.956991	0.578839
	C3143	C	0.199500	0.907687	0.578734
	C3144	C	0.174428	0.905863	0.673471
	C3145	C	0.236961	0.968017	0.673023
	C3146	C	0.136261	0.894792	0.830388
	C3147	C	0.198754	0.956902	0.828855
	C3148	C	0.136258	0.894503	0.675066
	C3149	C	0.198729	0.957309	0.674045
	C3150	C	0.174501	0.905291	0.828494
	C3151	C	0.236949	0.967992	0.828482
	C3152	C	0.139718	0.954535	1.000862
	C3153	C	0.203897	0.904781	0.501226
	C3154	C	0.169293	0.957599	1.000347
	C3155	C	0.233499	0.907935	0.501636
	C3156	C	0.170166	0.902130	0.751106
	C3157	C	0.232648	0.964613	0.750797
	C3158	C	0.140547	0.898081	0.752464
	C3159	C	0.203068	0.960495	0.751511
	C3160	C	0.147209	0.954581	1.000682
	C3161	C	0.211394	0.904705	0.501289
	C3162	C	0.161797	0.957763	1.000647
	C3163	C	0.225981	0.907934	0.501553
	C3164	C	0.162682	0.900203	0.751483
	C3165	C	0.225196	0.962631	0.750948
	C3166	C	0.148021	0.899839	0.752354
	C3167	C	0.210536	0.962170	0.751234
	C3168	C	0.150954	0.955281	0.916172
	C3169	C	0.215229	0.905531	1.085721
	C3170	C	0.157998	0.956987	0.416148
	C3171	C	0.222217	0.907192	0.417162
	C3172	C	0.158021	0.956810	0.916294
	C3173	C	0.222281	0.906901	1.085727
	C3174	C	0.150921	0.955547	0.416127
	C3175	C	0.215157	0.905712	0.417073
	C3176	C	0.158876	0.900167	0.667401
	C3177	C	0.221396	0.962466	0.666634
	C3178	C	0.151811	0.900047	0.836612
	C3179	C	0.214328	0.962220	0.835186
	C3180	C	0.151790	0.899801	0.667924
	C3181	C	0.214305	0.962195	0.666937
	C3182	C	0.158902	0.900240	0.835976
	C3183	C	0.221431	0.962536	0.835289
	N3184	N	0.128819	0.962212	0.952632
	N3185	N	0.193037	0.912197	0.952334
	N3186	N	0.180187	0.950412	0.548691
	N3187	N	0.244400	0.900426	0.550405
	N3188	N	0.180167	0.949897	0.951912
	N3189	N	0.244440	0.900089	0.952834
	N3190	N	0.128795	0.962135	0.549897
	N3191	N	0.193011	0.912710	0.549771
	N3192	N	0.180711	0.911980	0.701892
	N3193	N	0.243257	0.974064	0.702217
	N3194	N	0.129989	0.888508	0.801612
	N3195	N	0.192487	0.950800	0.799859
	N3196	N	0.129985	0.888267	0.704337
	N3197	N	0.192449	0.951143	0.702611
	N3198	N	0.180757	0.911604	0.799348
	N3199	N	0.243235	0.974065	0.799693
	H3200	H	0.261440	0.080556	0.349081
	H3201	H	0.325668	0.030881	0.350440
	H3202	H	0.297523	0.081502	0.155099
	H3203	H	0.361817	0.032041	0.151354
	H3204	H	0.297560	0.081485	0.350422
	H3205	H	0.361729	0.030928	0.346966
	H3206	H	0.261357	0.080511	0.153862
	H3207	H	0.325716	0.031709	0.154978
	H3208	H	0.298382	0.028681	0.100221
	H3209	H	0.360769	0.091659	0.096566
	H3210	H	0.262377	0.020667	0.404171
	H3211	H	0.325039	0.082558	0.404660
	H3212	H	0.262396	0.021088	0.098915
	H3213	H	0.324693	0.084293	0.100087
	H3214	H	0.298365	0.028795	0.404540
	H3215	H	0.360842	0.091068	0.401115
	H3216	H	0.273365	0.079503	0.349985
	H3217	H	0.337450	0.030189	0.349839
	H3218	H	0.285665	0.082532	0.153644
	H3219	H	0.349993	0.031616	0.152480
	H3220	H	0.285736	0.081882	0.350475
	H3221	H	0.349831	0.032662	0.348153
	H3222	H	0.273301	0.080014	0.153914
	H3223	H	0.337657	0.029189	0.153332
	H3224	H	0.286553	0.025724	0.100171
	H3225	H	0.348963	0.086909	0.097926
	H3226	H	0.274194	0.023629	0.403841
	H3227	H	0.336670	0.087558	0.402543
	H3228	H	0.274153	0.024990	0.100646
	H3229	H	0.336580	0.086263	0.099054
	H3230	H	0.286581	0.024254	0.403962
	H3231	H	0.349069	0.088097	0.401665
	Co3232	Co	0.374106	0.118454	0.123970
	Co3233	Co	0.311577	0.056345	0.128264
	Co3234	Co	0.249136	-0.006341	0.375845
	Co3235	Co	0.311606	0.055954	0.378391
	C3236	C	0.260296	0.081872	0.423473
	C3237	C	0.324534	0.032150	0.425293
	C3238	C	0.298678	0.080197	0.080198
	C3239	C	0.362962	0.030339	0.076750
	C3240	C	0.298730	0.079979	0.425094
	C3241	C	0.362918	0.029876	0.421335
	C3242	C	0.260261	0.082105	0.079302
	C3243	C	0.324546	0.032706	0.080126
	C3244	C	0.299470	0.030329	0.174492
	C3245	C	0.361898	0.093040	0.171414
	C3246	C	0.261272	0.019255	0.329447
	C3247	C	0.323801	0.081531	0.329967
	C3248	C	0.261280	0.019470	0.174078
	C3249	C	0.323658	0.082312	0.174626
	C3250	C	0.299452	0.030380	0.329898
	C3251	C	0.361963	0.092657	0.326755
	C3252	C	0.264712	0.079464	0.500981
	C3253	C	0.328939	0.029781	0.002251
	C3254	C	0.294296	0.082438	0.502639
	C3255	C	0.358519	0.032669	-0.000834
	C3256	C	0.295182	0.026848	0.252091
	C3257	C	0.357608	0.089400	0.249298
	C3258	C	0.265574	0.022699	0.251915
	C3259	C	0.328039	0.085493	0.251916
	C3260	C	0.272208	0.079399	0.501191
	C3261	C	0.336444	0.029644	0.001520
	C3262	C	0.286807	0.082451	0.502233
	C3263	C	0.351022	0.032854	0.000132
	C3264	C	0.287723	0.024976	0.252025
	C3265	C	0.350152	0.087552	0.249830
	C3266	C	0.273055	0.024539	0.252273
	C3267	C	0.335511	0.087205	0.251052
	C3268	C	0.276009	0.080045	0.417203
	C3269	C	0.340158	0.030659	0.416659
	C3270	C	0.283016	0.081910	0.086560
	C3271	C	0.347332	0.031519	0.085137
	C3272	C	0.283086	0.081476	0.417797
	C3273	C	0.347217	0.032162	0.415813
	C3274	C	0.275956	0.080376	0.086677
	C3275	C	0.340271	0.030077	0.085660
	C3276	C	0.283926	0.025330	0.167783
	C3277	C	0.346350	0.087044	0.165711
	C3278	C	0.276858	0.024181	0.336590
	C3279	C	0.339318	0.087503	0.335055
	C3280	C	0.276836	0.025035	0.167857
	C3281	C	0.339257	0.086737	0.166232
	C3282	C	0.283949	0.024409	0.336400
	C3283	C	0.346406	0.087740	0.334460
	N3284	N	0.253828	0.086867	0.451974
	N3285	N	0.318056	0.037019	0.454448
	N3286	N	0.305172	0.075222	0.051622
	N3287	N	0.369433	0.025331	0.047151
	N3288	N	0.305219	0.075062	0.454265
	N3289	N	0.369431	0.025045	0.449939
	N3290	N	0.253784	0.087134	0.049900
	N3291	N	0.318061	0.037569	0.051543
	N3292	N	0.305743	0.036572	0.203761
	N3293	N	0.368200	0.099050	0.200360
	N3294	N	0.254982	0.013334	0.300094
	N3295	N	0.317526	0.075396	0.301660
	N3296	N	0.254994	0.013379	0.202765
	N3297	N	0.317416	0.075917	0.204363
	N3298	N	0.305728	0.036580	0.301332
	N3299	N	0.368225	0.098900	0.297827
	H3300	H	0.261514	0.080733	0.849356
	H3301	H	0.325636	0.030385	0.850177
	H3302	H	0.297502	0.081021	0.655095
	H3303	H	0.361848	0.031960	0.651196
	H3304	H	0.297576	0.081307	0.850345
	H3305	H	0.361646	0.030830	0.846588
	H3306	H	0.261432	0.080781	0.653137
	H3307	H	0.325739	0.030902	0.654987
	H3308	H	0.298359	0.028669	0.600195
	H3309	H	0.360758	0.091426	0.597832
	H3310	H	0.262365	0.020825	0.903031
	H3311	H	0.324969	0.083072	0.904306
	H3312	H	0.262322	0.021313	0.598673
	H3313	H	0.324839	0.083433	0.600822
	H3314	H	0.298349	0.028877	0.904945
	H3315	H	0.360931	0.091172	0.902448
	H3316	H	0.273314	0.079666	0.850896
	H3317	H	0.337438	0.030973	0.849711
	H3318	H	0.285592	0.082441	0.653873
	H3319	H	0.350000	0.032327	0.651971
	H3320	H	0.285703	0.082071	0.850881
	H3321	H	0.349807	0.033286	0.848169
	H3322	H	0.273261	0.080152	0.652617
	H3323	H	0.337625	0.029942	0.653488
	H3324	H	0.286614	0.024968	0.600381
	H3325	H	0.349038	0.087250	0.599008
	H3326	H	0.274104	0.025112	0.902322
	H3327	H	0.336722	0.087716	0.903873
	H3328	H	0.274214	0.024263	0.599763
	H3329	H	0.336654	0.086753	0.600145
	H3330	H	0.286503	0.025522	0.903608
	H3331	H	0.349127	0.088241	0.903061
	Co3332	Co	0.374052	0.118932	0.623335
	Co3333	Co	0.311652	0.056173	0.627564
	Co3334	Co	0.249111	-0.006419	0.876230
	Co3335	Co	0.311667	0.056130	0.878071
	C3336	C	0.260312	0.082141	0.924122
	C3337	C	0.324500	0.032078	0.924868
	C3338	C	0.298697	0.079794	0.580799
	C3339	C	0.362968	0.030308	0.576577
	C3340	C	0.298710	0.080086	0.925173
	C3341	C	0.362882	0.029799	0.920931
	C3342	C	0.260296	0.082160	0.578552
	C3343	C	0.324581	0.032297	0.580486
	C3344	C	0.299456	0.030574	0.675037
	C3345	C	0.361914	0.093095	0.671923
	C3346	C	0.261277	0.019428	0.828228
	C3347	C	0.323823	0.081676	0.830156
	C3348	C	0.261262	0.019694	0.673096
	C3349	C	0.323757	0.081880	0.675219
	C3350	C	0.299457	0.030501	0.830467
	C3351	C	0.362018	0.092850	0.827407
	C3352	C	0.264682	0.079422	1.001973
	C3353	C	0.328942	0.029703	0.502662
	C3354	C	0.294290	0.082674	1.002385
	C3355	C	0.358535	0.032701	0.499149
	C3356	C	0.295172	0.026986	0.752649
	C3357	C	0.357652	0.089493	0.750225
	C3358	C	0.265546	0.023103	0.750677
	C3359	C	0.328101	0.085338	0.752526
	C3360	C	0.272197	0.079380	1.002340
	C3361	C	0.336456	0.029677	0.501815
	C3362	C	0.286786	0.082721	1.002338
	C3363	C	0.351023	0.032905	0.499906
	C3364	C	0.287681	0.025166	0.752196
	C3365	C	0.350206	0.087719	0.751062
	C3366	C	0.273025	0.024977	0.750887
	C3367	C	0.335544	0.087347	0.752102
	C3368	C	0.275974	0.080108	0.918012
	C3369	C	0.340142	0.031050	0.916563
	C3370	C	0.283012	0.081819	0.586174
	C3371	C	0.347317	0.031886	0.584821
	C3372	C	0.283036	0.081673	0.918027
	C3373	C	0.347213	0.032495	0.915952
	C3374	C	0.275941	0.080434	0.585777
	C3375	C	0.340264	0.030428	0.585930
	C3376	C	0.283942	0.024967	0.667593
	C3377	C	0.346414	0.087447	0.666820
	C3378	C	0.276793	0.025215	0.835446
	C3379	C	0.339351	0.087652	0.836198
	C3380	C	0.276852	0.024786	0.667033
	C3381	C	0.339314	0.087154	0.667445
	C3382	C	0.283883	0.025332	0.836174
	C3383	C	0.346456	0.087970	0.835746
	N3384	N	0.253828	0.087285	0.952505
	N3385	N	0.318028	0.037138	0.954036
	N3386	N	0.305187	0.074944	0.551958
	N3387	N	0.369459	0.025330	0.547281
	N3388	N	0.305198	0.075143	0.954186
	N3389	N	0.369373	0.024958	0.949473
	N3390	N	0.253817	0.086936	0.549538
	N3391	N	0.318084	0.037103	0.551971
	N3392	N	0.305736	0.036744	0.704115
	N3393	N	0.368198	0.099264	0.700204
	N3394	N	0.255009	0.013098	0.799272
	N3395	N	0.317553	0.075529	0.801670
	N3396	N	0.255000	0.013290	0.701996
	N3397	N	0.317508	0.075615	0.704183
	N3398	N	0.305727	0.036744	0.801421
	N3399	N	0.368252	0.099115	0.797547
	H3400	H	0.259770	0.194117	0.348326
	H3401	H	0.323845	0.143431	0.350210
	H3402	H	0.295771	0.193685	0.155035
	H3403	H	0.360125	0.144163	0.151086
	H3404	H	0.295796	0.194168	0.350451
	H3405	H	0.359905	0.143194	0.346589
	H3406	H	0.259716	0.193531	0.153192
	H3407	H	0.324109	0.144029	0.155799
	H3408	H	0.296807	0.140297	0.100773
	H3409	H	0.358966	0.204052	0.097688
	H3410	H	0.260700	0.133205	0.402956
	H3411	H	0.323144	0.196278	0.404297
	H3412	H	0.260733	0.133485	0.098612
	H3413	H	0.323148	0.195965	0.099259
	H3414	H	0.296590	0.141998	0.405546
	H3415	H	0.359215	0.203192	0.401778
	H3416	H	0.271553	0.191694	0.350801
	H3417	H	0.335664	0.142995	0.349155
	H3418	H	0.283990	0.194918	0.153177
	H3419	H	0.348378	0.144229	0.152087
	H3420	H	0.283957	0.194126	0.351267
	H3421	H	0.348025	0.145247	0.347930
	H3422	H	0.271568	0.193144	0.152920
	H3423	H	0.336035	0.142083	0.154124
	H3424	H	0.284962	0.137766	0.101316
	H3425	H	0.347340	0.199735	0.099905
	H3426	H	0.272440	0.136527	0.402856
	H3427	H	0.334978	0.199844	0.403034
	H3428	H	0.272490	0.137422	0.100159
	H3429	H	0.334936	0.199247	0.100727
	H3430	H	0.284815	0.137025	0.404064
	H3431	H	0.347410	0.200156	0.402333
	Co3432	Co	0.372374	0.230807	0.123426
	Co3433	Co	0.309898	0.168476	0.127920
	Co3434	Co	0.247404	0.105966	0.375796
	Co3435	Co	0.309888	0.169032	0.377815
	C3436	C	0.258521	0.195419	0.422890
	C3437	C	0.322693	0.144886	0.424643
	C3438	C	0.296966	0.192286	0.080539
	C3439	C	0.361308	0.142765	0.076549
	C3440	C	0.296938	0.192622	0.425167
	C3441	C	0.361117	0.142179	0.421475
	C3442	C	0.258568	0.195194	0.078205
	C3443	C	0.322889	0.145066	0.080947
	C3444	C	0.297825	0.142417	0.175820
	C3445	C	0.360182	0.205293	0.172006
	C3446	C	0.259574	0.131581	0.328572
	C3447	C	0.322048	0.194709	0.329261
	C3448	C	0.259570	0.131740	0.173004
	C3449	C	0.322056	0.194513	0.174439
	C3450	C	0.297719	0.143069	0.330757
	C3451	C	0.360316	0.204917	0.327344
	C3452	C	0.262914	0.192493	0.500602
	C3453	C	0.327299	0.142234	0.003120
	C3454	C	0.292496	0.195130	0.502557
	C3455	C	0.356859	0.145359	-0.000855
	C3456	C	0.293461	0.139193	0.252978
	C3457	C	0.355951	0.201638	0.250276
	C3458	C	0.263884	0.135085	0.250745
	C3459	C	0.326353	0.198097	0.251978
	C3460	C	0.270417	0.192147	0.501385
	C3461	C	0.334783	0.142154	0.002268
	C3462	C	0.285004	0.195171	0.502069
	C3463	C	0.349369	0.145428	0.000059
	C3464	C	0.286000	0.137354	0.252456
	C3465	C	0.348489	0.199787	0.251098
	C3466	C	0.271345	0.136887	0.251216
	C3467	C	0.333827	0.199854	0.252016
	C3468	C	0.274200	0.192516	0.417599
	C3469	C	0.338342	0.143224	0.416311
	C3470	C	0.281319	0.194563	0.086128
	C3471	C	0.345685	0.144160	0.085000
	C3472	C	0.281277	0.193919	0.417997
	C3473	C	0.345417	0.144638	0.415764
	C3474	C	0.274248	0.193344	0.085856
	C3475	C	0.338605	0.142644	0.086130
	C3476	C	0.282240	0.137518	0.168000
	C3477	C	0.344711	0.199654	0.167183
	C3478	C	0.275094	0.136783	0.335763
	C3479	C	0.337636	0.199943	0.335882
	C3480	C	0.275135	0.137235	0.167384
	C3481	C	0.337615	0.199577	0.167717
	C3482	C	0.282184	0.137158	0.336358
	C3483	C	0.344737	0.199977	0.335347
	N3484	N	0.252070	0.200874	0.451552
	N3485	N	0.316240	0.149928	0.453990
	N3486	N	0.303463	0.187339	0.052035
	N3487	N	0.367761	0.137558	0.047454
	N3488	N	0.303424	0.187713	0.454089
	N3489	N	0.367598	0.137376	0.450202
	N3490	N	0.252082	0.200309	0.049178
	N3491	N	0.316400	0.149776	0.052260
	N3492	N	0.304058	0.148852	0.204808
	N3493	N	0.366465	0.211446	0.200487
	N3494	N	0.253284	0.125558	0.299389
	N3495	N	0.315775	0.188482	0.300665
	N3496	N	0.253280	0.125663	0.201913
	N3497	N	0.315778	0.188300	0.203428
	N3498	N	0.303980	0.149329	0.301946
	N3499	N	0.366564	0.211131	0.297725
	H3500	H	0.259806	0.194397	0.848499
	H3501	H	0.324012	0.142816	0.851438
	H3502	H	0.295736	0.193611	0.655006
	H3503	H	0.359980	0.144428	0.651601
	H3504	H	0.295881	0.193767	0.850574
	H3505	H	0.360092	0.143945	0.846941
	H3506	H	0.259608	0.193618	0.652493
	H3507	H	0.323916	0.143428	0.653890
	H3508	H	0.296594	0.140995	0.601209
	H3509	H	0.359036	0.204401	0.597526
	H3510	H	0.260572	0.133712	0.903115
	H3511	H	0.323216	0.195489	0.904544
	H3512	H	0.260679	0.133267	0.598966
	H3513	H	0.323028	0.196134	0.601214
	H3514	H	0.296478	0.141712	0.905460
	H3515	H	0.359215	0.203455	0.901509
	H3516	H	0.271657	0.192702	0.850168
	H3517	H	0.335795	0.143248	0.850204
	H3518	H	0.283831	0.195251	0.652980
	H3519	H	0.348169	0.144265	0.651579
	H3520	H	0.284083	0.194521	0.850566
	H3521	H	0.348176	0.145571	0.848545
	H3522	H	0.271461	0.192976	0.652602
	H3523	H	0.335782	0.142106	0.652634
	H3524	H	0.284857	0.137828	0.600991
	H3525	H	0.347257	0.200013	0.599055
	H3526	H	0.272319	0.137176	0.903374
	H3527	H	0.334971	0.200250	0.903073
	H3528	H	0.272439	0.137010	0.600228
	H3529	H	0.334845	0.199154	0.600127
	H3530	H	0.284748	0.137861	0.904181
	H3531	H	0.347395	0.200885	0.901843
	Co3532	Co	0.372366	0.231079	0.624192
	Co3533	Co	0.309827	0.168572	0.628172
	Co3534	Co	0.247361	0.105996	0.875781
	Co3535	Co	0.309926	0.168336	0.878407
	C3536	C	0.258616	0.195542	0.923040
	C3537	C	0.322824	0.144524	0.925792
	C3538	C	0.296905	0.192412	0.580408
	C3539	C	0.361166	0.142777	0.576929
	C3540	C	0.297022	0.192411	0.925106
	C3541	C	0.361280	0.142491	0.921272
	C3542	C	0.258476	0.195380	0.578008
	C3543	C	0.322740	0.144860	0.579812
	C3544	C	0.297739	0.142614	0.675343
	C3545	C	0.360191	0.205492	0.672058
	C3546	C	0.259484	0.131807	0.828482
	C3547	C	0.322069	0.194143	0.830378
	C3548	C	0.259525	0.131657	0.673300
	C3549	C	0.321974	0.194528	0.675420
	C3550	C	0.297683	0.142999	0.831001
	C3551	C	0.360262	0.205153	0.827014
	C3552	C	0.262997	0.192662	1.000759
	C3553	C	0.327142	0.142174	0.501762
	C3554	C	0.292606	0.194954	1.002389
	C3555	C	0.356713	0.145087	0.499316
	C3556	C	0.293383	0.139342	0.753051
	C3557	C	0.355927	0.201945	0.749789
	C3558	C	0.263820	0.135332	0.751083
	C3559	C	0.326305	0.197812	0.752611
	C3560	C	0.270516	0.192351	1.001363
	C3561	C	0.334630	0.142128	0.501108
	C3562	C	0.285103	0.195024	1.001947
	C3563	C	0.349214	0.145205	0.499800
	C3564	C	0.285930	0.137599	0.752665
	C3565	C	0.348440	0.200114	0.750409
	C3566	C	0.271273	0.137154	0.751731
	C3567	C	0.333785	0.199727	0.751734
	C3568	C	0.274313	0.192995	0.917326
	C3569	C	0.338477	0.143414	0.917351
	C3570	C	0.281214	0.194668	0.585922
	C3571	C	0.345494	0.144070	0.584558
	C3572	C	0.281379	0.194170	0.917444
	C3573	C	0.345555	0.144951	0.916280
	C3574	C	0.274135	0.193254	0.585748
	C3575	C	0.338416	0.142718	0.585167
	C3576	C	0.282192	0.137595	0.668102
	C3577	C	0.344617	0.199797	0.666498
	C3578	C	0.275013	0.137281	0.836371
	C3579	C	0.337608	0.200195	0.835624
	C3580	C	0.275079	0.137259	0.667678
	C3581	C	0.337531	0.199547	0.667059
	C3582	C	0.282123	0.137573	0.836675
	C3583	C	0.344687	0.200429	0.835001
	N3584	N	0.252127	0.200572	0.951681
	N3585	N	0.316341	0.149406	0.954719
	N3586	N	0.303402	0.187538	0.551706
	N3587	N	0.367651	0.137797	0.547709
	N3588	N	0.303482	0.187289	0.954547
	N3589	N	0.367749	0.137383	0.950123
	N3590	N	0.252042	0.200775	0.548780
	N3591	N	0.316249	0.149807	0.551433
	N3592	N	0.303995	0.148937	0.704689
	N3593	N	0.366489	0.211513	0.700553
	N3594	N	0.253242	0.125562	0.799214
	N3595	N	0.315769	0.187998	0.802031
	N3596	N	0.253263	0.125482	0.702052
	N3597	N	0.315718	0.188172	0.704623
	N3598	N	0.303963	0.149132	0.801940
	N3599	N	0.366544	0.211305	0.797806
	H3600	H	0.258279	0.302021	0.348285
	H3601	H	0.322142	0.256258	0.350508
	H3602	H	0.294065	0.307024	0.155183
	H3603	H	0.358398	0.256910	0.151672
	H3604	H	0.294135	0.307973	0.352525
	H3605	H	0.358233	0.255492	0.347182
	H3606	H	0.258154	0.301436	0.153284
	H3607	H	0.322301	0.256426	0.155113
	H3608	H	0.295119	0.254013	0.101667
	H3609	H	0.357386	0.317474	0.098663
	H3610	H	0.258988	0.246653	0.402359
	H3611	H	0.321606	0.308691	0.405629
	H3612	H	0.259144	0.245680	0.098225
	H3613	H	0.321563	0.308651	0.100341
	H3614	H	0.294840	0.255287	0.405460
	H3615	H	0.357564	0.316684	0.402510
	H3616	H	0.269896	0.305658	0.652837
	H3617	H	0.333915	0.255585	0.350250
	H3618	H	0.282275	0.309098	0.153589
	H3619	H	0.346388	0.257446	-0.150499
	H3620	H	0.282196	0.309305	0.653754
	H3621	H	0.346317	0.257742	0.348450
	H3622	H	0.269943	0.305086	0.153029
	H3623	H	0.333992	0.255333	-0.149442
	H3624	H	0.283312	0.250668	0.100932
	H3625	H	0.345733	0.312192	0.100926
	H3626	H	0.270800	0.249003	0.402048
	H3627	H	0.333414	0.312543	0.403729
	H3628	H	0.270892	0.249758	0.099917
	H3629	H	0.333338	0.311513	0.101313
	H3630	H	0.283192	0.250352	0.402865
	H3631	H	0.345826	0.313537	0.402880
	Co3632	Co	0.370683	0.344627	0.124777
	Co3633	Co	0.308213	0.282101	0.128676
	Co3634	Co	0.245642	0.220097	0.375289
	Co3635	Co	0.308170	0.282525	0.378957
	C3636	C	0.256973	0.302614	0.423268
	C3637	C	0.320999	0.257818	0.425005
	C3638	C	0.295291	0.305842	0.081359
	C3639	C	0.359505	0.255032	0.077015
	C3640	C	0.295349	0.306442	0.426087
	C3641	C	0.359459	0.254533	0.421676
	C3642	C	0.256964	0.302621	0.078774
	C3643	C	0.321083	0.257810	0.080487
	C3644	C	0.296181	0.255838	0.175897
	C3645	C	0.358541	0.318941	0.172713
	C3646	C	0.257888	0.244948	0.327901
	C3647	C	0.320474	0.307299	0.330364
	C3648	C	0.257968	0.244356	0.172397
	C3649	C	0.320467	0.307270	0.175039
	C3650	C	0.296039	0.256574	0.330916
	C3651	C	0.358672	0.318427	0.327938
	C3652	C	0.261421	0.301644	0.501353
	C3653	C	0.325465	0.254927	0.002352
	C3654	C	0.290884	0.308915	0.503497
	C3655	C	0.355059	0.257520	-0.000401
	C3656	C	0.291818	0.252557	0.252952
	C3657	C	0.354324	0.315037	0.250839
	C3658	C	0.262258	0.247842	0.250371
	C3659	C	0.324784	0.310456	0.252744
	C3660	C	0.268865	0.303654	0.501941
	C3661	C	0.332976	0.254652	0.001879
	C3662	C	0.283406	0.308657	0.503056
	C3663	C	0.347562	0.257680	0.000530
	C3664	C	0.284373	0.250403	0.252184
	C3665	C	0.346857	0.312825	0.251734
	C3666	C	0.269729	0.249476	0.250911
	C3667	C	0.332253	0.312068	0.252458
	C3668	C	0.272558	0.305720	0.585983
	C3669	C	0.336643	0.255771	0.416934
	C3670	C	0.279641	0.308085	0.086677
	C3671	C	0.343756	0.256922	-0.083079
	C3672	C	0.279609	0.308129	0.586544
	C3673	C	0.343726	0.257047	0.416169
	C3674	C	0.272599	0.305689	0.086177
	C3675	C	0.336684	0.255565	-0.082447
	C3676	C	0.280633	0.250274	0.167785
	C3677	C	0.343070	0.312292	0.167924
	C3678	C	0.273476	0.249274	0.335261
	C3679	C	0.336048	0.312504	0.336460
	C3680	C	0.273535	0.249855	0.167091
	C3681	C	0.335995	0.311870	0.168162
	C3682	C	0.280563	0.249951	0.335822
	C3683	C	0.343131	0.313007	0.336027
	N3684	N	0.250372	0.305040	0.451699
	N3685	N	0.314551	0.263186	0.454647
	N3686	N	0.301779	0.300905	0.052305
	N3687	N	0.365962	0.249870	0.047664
	N3688	N	0.301810	0.301432	0.455357
	N3689	N	0.365928	0.249672	0.450285
	N3690	N	0.250375	0.305158	0.049850
	N3691	N	0.314596	0.263079	0.051907
	N3692	N	0.302401	0.262422	0.205463
	N3693	N	0.364825	0.325155	0.201459
	N3694	N	0.251582	0.239194	0.298594
	N3695	N	0.314160	0.301521	0.301724
	N3696	N	0.251621	0.238802	0.201199
	N3697	N	0.314150	0.301512	0.204215
	N3698	N	0.302317	0.262815	0.302662
	N3699	N	0.364916	0.324873	0.298397
	H3700	H	0.258244	0.302385	0.849556
	H3701	H	0.322174	0.255980	0.850244
	H3702	H	0.294076	0.307171	0.656052
	H3703	H	0.358366	0.256702	0.651110
	H3704	H	0.294158	0.308145	0.851189
	H3705	H	0.358234	0.255638	0.847491
	H3706	H	0.258158	0.301471	0.653701
	H3707	H	0.322276	0.256820	0.654836
	H3708	H	0.295067	0.254255	0.600661
	H3709	H	0.357416	0.317376	0.598606
	H3710	H	0.258998	0.246639	0.903179
	H3711	H	0.321628	0.308420	0.904596
	H3712	H	0.259169	0.245714	0.598201
	H3713	H	0.321524	0.308533	0.600346
	H3714	H	0.294980	0.254918	0.905071
	H3715	H	0.357554	0.316881	0.902072
	H3716	H	0.270075	0.304227	0.851264
	H3717	H	0.334162	0.254846	1.153370
	H3718	H	0.282363	0.307433	0.352218
	H3719	H	0.346506	0.256772	0.651747
	H3720	H	0.282373	0.308107	0.851866
	H3721	H	0.346525	0.257045	1.152145
	H3722	H	0.270034	0.303793	0.351239
	H3723	H	0.334136	0.254434	0.652912
	H3724	H	0.283251	0.251359	0.601091
	H3725	H	0.345699	0.312311	0.600029
	H3726	H	0.270816	0.249003	0.903180
	H3727	H	0.333392	0.312241	0.903432
	H3728	H	0.270868	0.250577	0.600552
	H3729	H	0.333343	0.311473	0.600547
	H3730	H	0.283232	0.249751	0.903626
	H3731	H	0.345757	0.313523	0.902573
	Co3732	Co	0.370738	0.344782	0.624508
	Co3733	Co	0.308157	0.282144	0.628320
	Co3734	Co	0.245765	0.219664	0.875760
	Co3735	Co	0.308207	0.282292	0.878517
	C3736	C	0.257016	0.303056	0.923731
	C3737	C	0.321033	0.257765	0.925003
	C3738	C	0.295305	0.306131	0.581315
	C3739	C	0.359501	0.255084	0.576900
	C3740	C	0.295361	0.306465	0.926027
	C3741	C	0.359443	0.254576	0.921840
	C3742	C	0.256922	0.302451	0.578981
	C3743	C	0.321054	0.258002	0.580498
	C3744	C	0.296129	0.255933	0.675385
	C3745	C	0.358559	0.319019	0.673061
	C3746	C	0.257903	0.245064	0.828520
	C3747	C	0.320474	0.307125	0.830318
	C3748	C	0.257976	0.244701	0.673143
	C3749	C	0.320415	0.307221	0.675121
	C3750	C	0.296089	0.256251	0.830540
	C3751	C	0.358632	0.318796	0.827910
	C3752	C	0.261451	0.301888	1.001701
	C3753	C	0.325443	0.255139	0.502420
	C3754	C	0.290919	0.308977	1.003420
	C3755	C	0.355035	0.257431	0.499350
	C3756	C	0.291833	0.252393	0.752804
	C3757	C	0.354300	0.315136	0.750788
	C3758	C	0.262251	0.248064	0.751095
	C3759	C	0.324769	0.310393	0.752461
	C3760	C	0.268901	0.303820	1.002125
	C3761	C	0.332944	0.254768	0.501660
	C3762	C	0.283412	0.308892	1.002691
	C3763	C	0.347540	0.257665	0.500082
	C3764	C	0.284371	0.250349	0.752419
	C3765	C	0.346866	0.312886	0.751306
	C3766	C	0.269721	0.249767	0.751761
	C3767	C	0.332217	0.312136	0.752098
	C3768	C	0.272669	0.305129	0.918473
	C3769	C	0.336775	0.255308	1.085799
	C3770	C	0.279701	0.307078	0.418968
	C3771	C	0.343837	0.256555	0.584656
	C3772	C	0.279705	0.307466	0.918483
	C3773	C	0.343845	0.256795	1.085184
	C3774	C	0.272636	0.304730	0.418407
	C3775	C	0.336754	0.255217	0.585553
	C3776	C	0.280588	0.250822	0.668114
	C3777	C	0.343088	0.312287	0.667361
	C3778	C	0.273486	0.249377	0.836133
	C3779	C	0.336010	0.312484	0.836080
	C3780	C	0.273506	0.250354	0.667789
	C3781	C	0.335985	0.312004	0.667738
	C3782	C	0.280572	0.249832	0.836398
	C3783	C	0.343107	0.312939	0.835561
	N3784	N	0.250422	0.305451	0.951651
	N3785	N	0.314582	0.263070	0.954517
	N3786	N	0.301772	0.301190	0.552639
	N3787	N	0.365958	0.249988	0.548012
	N3788	N	0.301833	0.301286	0.955203
	N3789	N	0.365917	0.249605	0.950190
	N3790	N	0.250336	0.304881	0.549715
	N3791	N	0.314574	0.263150	0.551790
	N3792	N	0.302370	0.262446	0.704457
	N3793	N	0.364815	0.325352	0.701520
	N3794	N	0.251603	0.239217	0.799211
	N3795	N	0.314152	0.301460	0.801832
	N3796	N	0.251653	0.238994	0.701838
	N3797	N	0.314120	0.301451	0.704239
	N3798	N	0.302339	0.262704	0.801857
	N3799	N	0.364869	0.325194	0.798804
	H3800	H	0.267648	0.511253	0.351839
	H3801	H	0.320585	0.363784	0.350180
	H3802	H	0.294884	0.426291	0.155054
	H3803	H	0.356716	0.370359	0.153099
	H3804	H	0.295028	0.426531	0.353103
	H3805	H	0.356597	0.369768	0.347645
	H3806	H	0.267762	0.511652	0.154191
	H3807	H	0.320745	0.364685	0.155456
	H3808	H	0.292061	0.366599	0.101462
	H3809	H	0.354483	0.429089	0.099089
	H3810	H	0.256289	0.354789	0.402940
	H3811	H	0.318972	0.416543	0.405303
	H3812	H	0.256446	0.354364	0.099538
	H3813	H	0.318811	0.417277	0.101307
	H3814	H	0.291891	0.367180	0.404240
	H3815	H	0.354580	0.428610	0.403109
	H3816	H	0.276631	0.483941	0.488964
	H3817	H	0.332432	0.367891	0.350671
	H3818	H	0.286602	0.455773	0.059100
	H3819	H	0.344828	0.370877	0.152771
	H3820	H	0.286161	0.454541	0.488868
	H3821	H	0.344728	0.371764	0.350041
	H3822	H	0.277107	0.485159	0.059130
	H3823	H	0.332545	0.366512	0.153356
	H3824	H	0.280185	0.366851	0.103333
	H3825	H	0.342759	0.427903	0.104022
	H3826	H	0.267839	0.362432	0.400407
	H3827	H	0.330345	0.426729	0.400490
	H3828	H	0.267831	0.364205	0.103229
	H3829	H	0.330332	0.425535	0.104341
	H3830	H	0.280197	0.365231	0.401131
	H3831	H	0.342759	0.429206	0.400284
	Co3832	Co	0.368748	0.447655	0.125878
	Co3833	Co	0.306305	0.385194	0.129067
	Co3834	Co	0.243770	0.322688	0.375264
	Co3835	Co	0.306294	0.385176	0.379099
	C3836	C	0.266767	0.514249	0.425441
	C3837	C	0.319437	0.364740	0.425047
	C3838	C	0.295771	0.423187	0.080910
	C3839	C	0.357836	0.368907	0.078361
	C3840	C	0.295846	0.423374	0.426937
	C3841	C	0.357775	0.368474	0.422596
	C3842	C	0.266791	0.514496	0.080356
	C3843	C	0.319513	0.365240	0.080898
	C3844	C	0.293232	0.367170	0.175725
	C3845	C	0.355706	0.429562	0.173959
	C3846	C	0.255323	0.352626	0.328591
	C3847	C	0.317924	0.414842	0.330805
	C3848	C	0.255380	0.352480	0.173724
	C3849	C	0.317851	0.415100	0.176008
	C3850	C	0.293144	0.367518	0.330359
	C3851	C	0.355769	0.429234	0.328862
	C3852	C	0.270030	0.503576	0.503204
	C3853	C	0.323911	0.364073	0.003005
	C3854	C	0.292504	0.433835	0.504374
	C3855	C	0.353410	0.371550	0.001388
	C3856	C	0.288777	0.366191	0.252679
	C3857	C	0.351340	0.428287	0.251557
	C3858	C	0.259454	0.358107	0.251334
	C3859	C	0.321979	0.420581	0.253028
	C3860	C	0.275709	0.485858	0.503708
	C3861	C	0.331387	0.366057	0.002499
	C3862	C	0.286820	0.451548	0.504184
	C3863	C	0.345894	0.371417	0.001978
	C3864	C	0.281314	0.365646	0.252243
	C3865	C	0.343852	0.427893	0.251939
	C3866	C	0.266761	0.362766	0.251735
	C3867	C	0.329306	0.425270	0.252396
	C3868	C	0.278640	0.477279	0.495524
	C3869	C	0.335088	0.368239	0.417686
	C3870	C	0.284264	0.461361	0.034349
	C3871	C	0.342177	0.369986	0.085985
	C3872	C	0.284026	0.460619	0.495625
	C3873	C	0.342124	0.370541	0.417105
	C3874	C	0.278878	0.478082	0.034431
	C3875	C	0.335157	0.367432	0.086169
	C3876	C	0.277555	0.365899	0.169214
	C3877	C	0.340076	0.427520	0.169496
	C3878	C	0.270499	0.363445	0.334804
	C3879	C	0.333029	0.426894	0.334933
	C3880	C	0.270494	0.364392	0.169037
	C3881	C	0.333018	0.426214	0.169708
	C3882	C	0.277561	0.364893	0.335041
	C3883	C	0.340100	0.428144	0.334846
	N3884	N	0.261926	0.530110	0.454408
	N3885	N	0.312847	0.367213	0.454257
	N3886	N	0.300610	0.407343	0.051790
	N3887	N	0.364317	0.363849	0.048845
	N3888	N	0.300672	0.407456	0.456131
	N3889	N	0.364278	0.363573	0.450805
	N3890	N	0.261917	0.530155	0.050967
	N3891	N	0.312889	0.367449	0.052856
	N3892	N	0.299754	0.369231	0.205046
	N3893	N	0.362261	0.431676	0.202284
	N3894	N	0.249421	0.343578	0.299132
	N3895	N	0.312002	0.405781	0.302053
	N3896	N	0.249443	0.343589	0.202569
	N3897	N	0.311966	0.405908	0.205542
	N3898	N	0.299690	0.369487	0.302415
	N3899	N	0.362319	0.431496	0.299869
	H3900	H	0.267463	0.510391	0.851124
	H3901	H	0.320622	0.363775	0.850796
	H3902	H	0.294857	0.425706	0.655704
	H3903	H	0.356749	0.370430	0.652102
	H3904	H	0.294921	0.426016	0.851908
	H3905	H	0.356559	0.369973	0.849052
	H3906	H	0.267536	0.511243	0.654442
	H3907	H	0.320751	0.364651	0.655227
	H3908	H	0.292060	0.366385	0.601141
	H3909	H	0.354503	0.429612	0.599754
	H3910	H	0.256299	0.355381	0.902226
	H3911	H	0.318975	0.416427	0.905492
	H3912	H	0.256517	0.353966	0.598473
	H3913	H	0.318831	0.417334	0.602204
	H3914	H	0.291934	0.366756	0.904540
	H3915	H	0.354561	0.428831	0.902444
	H3916	H	0.275878	0.481634	0.948620
	H3917	H	0.332419	0.367381	0.851559
	H3918	H	0.285891	0.453579	0.519125
	H3919	H	0.344863	0.370588	0.652584
	H3920	H	0.285374	0.452132	0.947667
	H3921	H	0.344743	0.371725	0.851609
	H3922	H	0.276375	0.483010	0.519091
	H3923	H	0.332594	0.366493	0.653174
	H3924	H	0.280253	0.367368	0.604077
	H3925	H	0.342688	0.427697	0.602646
	H3926	H	0.267759	0.363399	0.899801
	H3927	H	0.330319	0.427046	0.901733
	H3928	H	0.267858	0.365003	0.603119
	H3929	H	0.330295	0.425127	0.603393
	H3930	H	0.280196	0.365787	0.900384
	H3931	H	0.342718	0.429764	0.900572
	Co3932	Co	0.368840	0.447857	0.625822
	Co3933	Co	0.306284	0.385020	0.629342
	Co3934	Co	0.243820	0.323242	0.875074
	Co3935	Co	0.306251	0.384842	0.879380
	C3936	C	0.266627	0.513852	0.925219
	C3937	C	0.319433	0.364708	0.925717
	C3938	C	0.295755	0.422934	0.581582
	C3939	C	0.357853	0.368834	0.577688
	C3940	C	0.295784	0.423045	0.925931
	C3941	C	0.357763	0.368671	0.923302
	C3942	C	0.266697	0.514224	0.580192
	C3943	C	0.319506	0.365164	0.580463
	C3944	C	0.293228	0.366830	0.675405
	C3945	C	0.355668	0.430114	0.673389
	C3946	C	0.255312	0.353186	0.827908
	C3947	C	0.317895	0.414472	0.831169
	C3948	C	0.255445	0.352470	0.672903
	C3949	C	0.317794	0.415047	0.676316
	C3950	C	0.293165	0.367052	0.830502
	C3951	C	0.355719	0.429743	0.828271
	C3952	C	0.270045	0.503521	1.002792
	C3953	C	0.323936	0.364067	0.502346
	C3954	C	0.292452	0.433891	1.003218
	C3955	C	0.353422	0.371409	0.500493
	C3956	C	0.288814	0.366001	0.752677
	C3957	C	0.351279	0.428672	0.751073
	C3958	C	0.259439	0.358407	0.750695
	C3959	C	0.321922	0.420507	0.753505
	C3960	C	0.275686	0.485812	1.003033
	C3961	C	0.331399	0.366104	0.501905
	C3962	C	0.286790	0.451568	1.003206
	C3963	C	0.345921	0.371203	0.501175
	C3964	C	0.281305	0.365800	0.752258
	C3965	C	0.343793	0.428117	0.751506
	C3966	C	0.266770	0.363217	0.751602
	C3967	C	0.329239	0.425245	0.752736
	C3968	C	0.278215	0.476046	0.972176
	C3969	C	0.335080	0.368111	0.918524
	C3970	C	0.283893	0.460147	0.512337
	C3971	C	0.342206	0.369822	0.585752
	C3972	C	0.283609	0.459349	0.972038
	C3973	C	0.342113	0.370567	0.918277
	C3974	C	0.278506	0.476809	0.512309
	C3975	C	0.335179	0.367302	0.585891
	C3976	C	0.277570	0.366304	0.669134
	C3977	C	0.340017	0.427434	0.668726
	C3978	C	0.270469	0.364121	0.834642
	C3979	C	0.332969	0.427113	0.835543
	C3980	C	0.270523	0.364982	0.668851
	C3981	C	0.332948	0.426065	0.669351
	C3982	C	0.277520	0.365448	0.834996
	C3983	C	0.340034	0.428582	0.834881
	N3984	N	0.261801	0.529697	0.954686
	N3985	N	0.312846	0.367132	0.954734
	N3986	N	0.300609	0.407197	0.552137
	N3987	N	0.364320	0.363728	0.548351
	N3988	N	0.300602	0.407217	0.955657
	N3989	N	0.364264	0.363666	0.951598
	N3990	N	0.261880	0.530106	0.550404
	N3991	N	0.312894	0.367489	0.552493
	N3992	N	0.299769	0.368882	0.704748
	N3993	N	0.362223	0.432127	0.701849
	N3994	N	0.249411	0.343889	0.798282
	N3995	N	0.311962	0.405462	0.802507
	N3996	N	0.249483	0.343469	0.701676
	N3997	N	0.311908	0.405747	0.705793
	N3998	N	0.299729	0.368908	0.802461
	N3999	N	0.362263	0.431928	0.799215
	H4000	H	0.268404	0.629647	0.350083
	H4001	H	0.330020	0.573269	0.350766
	H4002	H	0.304316	0.635851	0.153330
	H4003	H	0.357352	0.488436	0.152915
	H4004	H	0.304339	0.635640	0.349063
	H4005	H	0.357295	0.488156	0.349861
	H4006	H	0.268361	0.629962	0.154112
	H4007	H	0.330078	0.573956	0.153545
	H4008	H	0.306033	0.583119	0.100391
	H4009	H	0.368484	0.645876	0.099004
	H4010	H	0.270533	0.570525	0.404349
	H4011	H	0.333070	0.632921	0.403545
	H4012	H	0.270500	0.571366	0.100018
	H4013	H	0.333015	0.633306	0.099776
	H4014	H	0.306149	0.582534	0.403659
	H4015	H	0.368732	0.644912	0.402542
	H4016	H	0.280282	0.628535	0.652176
	H4017	H	0.338931	0.545713	0.484916
	H4018	H	0.292540	0.632671	0.152527
	H4019	H	0.348612	0.517797	0.079472
	H4020	H	0.292647	0.632533	0.651454
	H4021	H	0.348475	0.516277	0.485656
	H4022	H	0.280185	0.628784	0.152649
	H4023	H	0.339116	0.547255	0.079840
	H4024	H	0.294740	0.572640	0.103964
	H4025	H	0.357200	0.637393	0.400120
	H4026	H	0.282286	0.572273	0.399952
	H4027	H	0.344781	0.632922	0.103340
	H4028	H	0.282335	0.570199	0.103840
	H4029	H	0.344775	0.635090	0.400030
	H4030	H	0.294674	0.574817	0.400428
	H4031	H	0.357206	0.635369	0.102842
	Co4032	Co	0.381200	0.677195	0.124887
	Co4033	Co	0.318707	0.614818	0.127243
	Co4034	Co	0.256254	0.552263	0.377449
	Co4035	Co	0.318748	0.614585	0.376510
	C4036	C	0.267250	0.631035	0.424674
	C4037	C	0.329183	0.576471	0.424669
	C4038	C	0.305532	0.634918	0.079174
	C4039	C	0.358267	0.485670	0.078988
	C4040	C	0.305590	0.634923	0.423649
	C4041	C	0.358229	0.485479	0.423764
	C4042	C	0.267190	0.631237	0.079350
	C4043	C	0.329189	0.576846	0.079418
	C4044	C	0.307141	0.584958	0.174719
	C4045	C	0.369612	0.647406	0.173144
	C4046	C	0.269318	0.570270	0.329664
	C4047	C	0.331843	0.632724	0.329402
	C4048	C	0.269299	0.570670	0.174516
	C4049	C	0.331814	0.632916	0.174152
	C4050	C	0.307185	0.584744	0.329644
	C4051	C	0.369700	0.647100	0.328152
	C4052	C	0.271666	0.628555	0.502455
	C4053	C	0.332510	0.566100	0.002568
	C4054	C	0.301149	0.635904	0.501492
	C4055	C	0.354972	0.496575	0.001610
	C4056	C	0.303066	0.579215	0.252368
	C4057	C	0.365579	0.641620	0.250919
	C4058	C	0.273743	0.571517	0.252101
	C4059	C	0.336229	0.633998	0.251701
	C4060	C	0.279167	0.628761	0.502249
	C4061	C	0.338182	0.548456	0.002682
	C4062	C	0.293675	0.633884	0.501608
	C4063	C	0.349302	0.514201	0.001771
	C4064	C	0.295761	0.574402	0.252248
	C4065	C	0.358261	0.636933	0.251445
	C4066	C	0.281228	0.571933	0.252047
	C4067	C	0.343711	0.634450	0.251705
	C4068	C	0.282928	0.629594	0.585588
	C4069	C	0.340999	0.539361	0.492272
	C4070	C	0.289878	0.632084	0.085829
	C4071	C	0.346526	0.523631	0.045229
	C4072	C	0.289969	0.632031	0.585219
	C4073	C	0.346399	0.522716	0.492777
	C4074	C	0.282843	0.629689	0.085849
	C4075	C	0.341124	0.540312	0.045613
	C4076	C	0.292065	0.572725	0.169292
	C4077	C	0.354527	0.636492	0.334597
	C4078	C	0.284963	0.572518	0.334705
	C4079	C	0.347466	0.633971	0.168780
	C4080	C	0.284992	0.571456	0.169269
	C4081	C	0.347459	0.635164	0.334583
	C4082	C	0.292027	0.573800	0.334886
	C4083	C	0.354532	0.635225	0.168688
	N4084	N	0.260750	0.636011	0.453638
	N4085	N	0.324386	0.592507	0.453964
	N4086	N	0.312118	0.632393	0.050572
	N4087	N	0.363115	0.469936	0.049420
	N4088	N	0.312195	0.632447	0.452332
	N4089	N	0.363124	0.469874	0.452841
	N4090	N	0.260698	0.636222	0.050541
	N4091	N	0.324367	0.592697	0.049927
	N4092	N	0.313046	0.594081	0.203833
	N4093	N	0.375519	0.656581	0.201944
	N4094	N	0.262768	0.568253	0.300964
	N4095	N	0.325302	0.630576	0.300508
	N4096	N	0.262755	0.568395	0.203723
	N4097	N	0.325271	0.630829	0.203063
	N4098	N	0.313088	0.593847	0.300313
	N4099	N	0.375581	0.656352	0.298678
	H4100	H	0.268364	0.630234	0.849204
	H4101	H	0.330033	0.573494	0.851272
	H4102	H	0.304337	0.635707	0.653798
	H4103	H	0.357580	0.488913	0.651825
	H4104	H	0.304301	0.635629	0.849288
	H4105	H	0.357428	0.488976	0.850360
	H4106	H	0.268452	0.630052	0.654419
	H4107	H	0.330123	0.573831	0.653072
	H4108	H	0.306027	0.583429	0.599970
	H4109	H	0.368450	0.645904	0.598273
	H4110	H	0.270502	0.570253	0.904041
	H4111	H	0.332973	0.633419	0.904162
	H4112	H	0.270477	0.570739	0.600653
	H4113	H	0.332919	0.634258	0.600480
	H4114	H	0.306107	0.582761	0.903714
	H4115	H	0.368719	0.644837	0.901845
	H4116	H	0.280191	0.629118	0.851017
	H4117	H	0.338846	0.544960	0.925123
	H4118	H	0.292586	0.633125	0.351410
	H4119	H	0.348522	0.516359	0.517553
	H4120	H	0.292508	0.633071	0.850624
	H4121	H	0.348387	0.515588	0.924515
	H4122	H	0.280228	0.629588	0.352062
	H4123	H	0.338997	0.545745	0.518033
	H4124	H	0.294661	0.574370	0.900430
	H4125	H	0.357141	0.635596	0.602906
	H4126	H	0.282272	0.570969	0.602956
	H4127	H	0.344737	0.635210	0.899664
	H4128	H	0.282257	0.571527	0.900587
	H4129	H	0.344741	0.633468	0.603652
	H4130	H	0.294656	0.573503	0.602966
	H4131	H	0.357136	0.637368	0.899356
	Co4132	Co	0.381180	0.677262	0.624417
	Co4133	Co	0.318728	0.614844	0.627151
	Co4134	Co	0.256226	0.551975	0.877318
	Co4135	Co	0.318710	0.614631	0.876379
	C4136	C	0.267195	0.631314	0.924031
	C4137	C	0.329170	0.576655	0.925084
	C4138	C	0.305596	0.634986	0.578966
	C4139	C	0.358390	0.485851	0.577875
	C4140	C	0.305527	0.634726	0.923965
	C4141	C	0.358318	0.485911	0.924103
	C4142	C	0.267251	0.631246	0.580025
	C4143	C	0.329219	0.576760	0.579059
	C4144	C	0.307074	0.585188	0.673998
	C4145	C	0.369527	0.647686	0.672415
	C4146	C	0.269285	0.569983	0.829921
	C4147	C	0.331763	0.633043	0.829742
	C4148	C	0.269252	0.570256	0.674917
	C4149	C	0.331736	0.633413	0.674739
	C4150	C	0.307130	0.584848	0.829006
	C4151	C	0.369689	0.647058	0.827376
	C4152	C	0.271590	0.628597	1.001664
	C4153	C	0.332506	0.565858	0.501846
	C4154	C	0.301076	0.635891	1.001643
	C4155	C	0.354962	0.496305	0.501205
	C4156	C	0.303014	0.579405	0.751740
	C4157	C	0.365512	0.641709	0.750313
	C4158	C	0.273687	0.571365	0.752175
	C4159	C	0.336176	0.634530	0.752038
	C4160	C	0.279093	0.628760	1.001976
	C4161	C	0.338155	0.548121	0.501688
	C4162	C	0.293596	0.633958	1.001882
	C4163	C	0.349288	0.513970	0.501955
	C4164	C	0.295703	0.574691	0.751614
	C4165	C	0.358203	0.637117	0.751157
	C4166	C	0.281164	0.571858	0.751872
	C4167	C	0.343646	0.634839	0.751792
	C4168	C	0.282845	0.629948	0.917918
	C4169	C	0.340973	0.539031	0.958992
	C4170	C	0.289929	0.632472	0.418011
	C4171	C	0.346452	0.522688	0.510786
	C4172	C	0.289872	0.632398	0.917915
	C4173	C	0.346373	0.522330	0.958655
	C4174	C	0.282892	0.630114	0.418404
	C4175	C	0.341037	0.539301	0.510948
	C4176	C	0.291974	0.573563	0.834765
	C4177	C	0.354475	0.635541	0.668613
	C4178	C	0.284918	0.571782	0.668762
	C4179	C	0.347393	0.635356	0.834298
	C4180	C	0.284909	0.572115	0.834763
	C4181	C	0.347402	0.634383	0.669089
	C4182	C	0.291982	0.573226	0.668591
	C4183	C	0.354477	0.636488	0.834114
	N4184	N	0.260700	0.636345	0.953112
	N4185	N	0.324339	0.592526	0.954032
	N4186	N	0.312186	0.632473	0.550383
	N4187	N	0.363213	0.470080	0.548256
	N4188	N	0.312124	0.632271	0.952541
	N4189	N	0.363151	0.470074	0.953303
	N4190	N	0.260758	0.636128	0.551158
	N4191	N	0.324421	0.592707	0.549775
	N4192	N	0.312999	0.594230	0.703059
	N4193	N	0.375459	0.656656	0.701056
	N4194	N	0.262751	0.567973	0.801586
	N4195	N	0.325242	0.630826	0.801072
	N4196	N	0.262732	0.567994	0.704040
	N4197	N	0.325211	0.631118	0.703464
	N4198	N	0.313020	0.594120	0.799539
	N4199	N	0.375584	0.656206	0.797728
	H4200	H	0.266815	0.744336	0.349220
	H4201	H	0.330807	0.691971	0.349953
	H4202	H	0.302737	0.744022	0.154567
	H4203	H	0.366851	0.698806	0.152798
	H4204	H	0.302819	0.743651	0.350002
	H4205	H	0.366732	0.697723	0.347621
	H4206	H	0.266656	0.743397	0.153152
	H4207	H	0.330956	0.693052	0.154866
	H4208	H	0.303500	0.691333	0.100088
	H4209	H	0.365752	0.754900	0.097205
	H4210	H	0.267510	0.682989	0.403768
	H4211	H	0.330031	0.745053	0.404876
	H4212	H	0.267545	0.682313	0.100144
	H4213	H	0.329857	0.746018	0.100431
	H4214	H	0.303365	0.691561	0.404863
	H4215	H	0.366059	0.753300	0.402146
	H4216	H	0.278546	0.742313	0.653384
	H4217	H	0.342660	0.692650	0.350430
	H4218	H	0.290893	0.744571	0.153486
	H4219	H	0.355132	0.694557	0.151668
	H4220	H	0.290918	0.744725	0.653765
	H4221	H	0.354994	0.696629	0.349972
	H4222	H	0.278496	0.742280	0.152132
	H4223	H	0.342813	0.690485	0.152410
	H4224	H	0.291611	0.688185	0.402970
	H4225	H	0.354078	0.749788	0.099226
	H4226	H	0.279306	0.686719	0.100433
	H4227	H	0.341744	0.751081	0.403012
	H4228	H	0.279209	0.687387	0.402422
	H4229	H	0.341702	0.748811	0.100252
	H4230	H	0.291741	0.687602	0.101240
	H4231	H	0.354153	0.751763	0.402245
	Co4232	Co	0.379296	0.780630	0.123275
	Co4233	Co	0.316795	0.718028	0.127932
	Co4234	Co	0.254366	0.655074	0.377410
	Co4235	Co	0.316800	0.717744	0.378221
	C4236	C	0.265583	0.745321	0.424040
	C4237	C	0.329661	0.693643	0.424399
	C4238	C	0.303951	0.742448	0.080069
	C4239	C	0.368058	0.697629	0.077973
	C4240	C	0.303957	0.742147	0.424838
	C4241	C	0.368021	0.697271	0.422127
	C4242	C	0.265531	0.744811	0.078628
	C4243	C	0.329733	0.694207	0.080667
	C4244	C	0.304588	0.692792	0.175177
	C4245	C	0.366955	0.755853	0.171456
	C4246	C	0.266420	0.681303	0.329347
	C4247	C	0.328931	0.743740	0.329901
	C4248	C	0.266418	0.680970	0.174246
	C4249	C	0.328850	0.744229	0.174832
	C4250	C	0.304530	0.692823	0.330284
	C4251	C	0.367100	0.755121	0.326760
	C4252	C	0.269958	0.742317	0.502052
	C4253	C	0.334125	0.691259	0.002635
	C4254	C	0.299543	0.745005	0.502605
	C4255	C	0.363572	0.698410	0.000605
	C4256	C	0.300253	0.689536	0.252479
	C4257	C	0.362728	0.752334	0.249685
	C4258	C	0.270695	0.684850	0.251614
	C4259	C	0.333164	0.747728	0.252160
	C4260	C	0.277452	0.742180	0.502371
	C4261	C	0.341607	0.691413	0.001878
	C4262	C	0.292040	0.745270	0.502602
	C4263	C	0.356118	0.696542	0.001098
	C4264	C	0.292780	0.687791	0.252054
	C4265	C	0.355246	0.750639	0.250522
	C4266	C	0.278144	0.687063	0.251343
	C4267	C	0.340607	0.749979	0.251627
	C4268	C	0.281208	0.742787	0.586494
	C4269	C	0.345308	0.693042	0.417126
	C4270	C	0.288269	0.744309	0.085980
	C4271	C	0.352437	0.694304	0.085067
	C4272	C	0.288275	0.744193	0.586541
	C4273	C	0.352357	0.695532	0.416869
	C4274	C	0.281200	0.742901	0.085671
	C4275	C	0.345395	0.691901	0.085393
	C4276	C	0.288974	0.687918	0.335801
	C4277	C	0.351445	0.750043	0.166558
	C4278	C	0.281944	0.686969	0.167527
	C4279	C	0.344396	0.750673	0.335688
	C4280	C	0.281882	0.687475	0.335477
	C4281	C	0.344362	0.749577	0.167230
	C4282	C	0.289034	0.687444	0.167888
	C4283	C	0.351481	0.751004	0.335222
	N4284	N	0.259097	0.750251	0.452877
	N4285	N	0.323197	0.698718	0.453866
	N4286	N	0.310408	0.737025	0.051070
	N4287	N	0.374636	0.694939	0.048713
	N4288	N	0.310403	0.736876	0.454067
	N4289	N	0.374624	0.694908	0.450441
	N4290	N	0.259053	0.750058	0.049800
	N4291	N	0.323237	0.699098	0.051947
	N4292	N	0.310885	0.698616	0.204413
	N4293	N	0.373313	0.761342	0.199519
	N4294	N	0.260180	0.674740	0.300591
	N4295	N	0.322688	0.737305	0.301318
	N4296	N	0.260162	0.674648	0.203311
	N4297	N	0.322633	0.737654	0.203896
	N4298	N	0.310860	0.698587	0.301796
	N4299	N	0.373413	0.760850	0.297124
	H4300	H	0.266711	0.744198	0.849243
	H4301	H	0.330848	0.692176	0.850475
	H4302	H	0.302748	0.743621	0.654662
	H4303	H	0.366865	0.698861	0.651969
	H4304	H	0.302773	0.743252	0.850031
	H4305	H	0.366726	0.697630	0.847879
	H4306	H	0.266648	0.742765	0.654212
	H4307	H	0.330933	0.693369	0.654848
	H4308	H	0.303551	0.691339	0.600346
	H4309	H	0.365820	0.754553	0.597269
	H4310	H	0.267475	0.683056	0.904361
	H4311	H	0.330100	0.744774	0.904961
	H4312	H	0.267556	0.682570	0.599384
	H4313	H	0.329894	0.746178	0.600063
	H4314	H	0.303471	0.691168	0.905031
	H4315	H	0.365989	0.753549	0.901503
	H4316	H	0.278564	0.743257	0.850493
	H4317	H	0.342652	0.692660	0.851265
	H4318	H	0.290942	0.745105	0.351274
	H4319	H	0.355113	0.694778	0.651386
	H4320	H	0.290953	0.745486	0.850897
	H4321	H	0.354952	0.696684	0.850709
	H4322	H	0.278581	0.742713	0.351047
	H4323	H	0.342819	0.690919	0.652189
	H4324	H	0.291728	0.687314	0.601534
	H4325	H	0.354103	0.749895	0.599217
	H4326	H	0.279224	0.687751	0.902600
	H4327	H	0.341758	0.751055	0.902667
	H4328	H	0.279298	0.686429	0.601223
	H4329	H	0.341688	0.748642	0.600309
	H4330	H	0.291647	0.688351	0.903148
	H4331	H	0.354148	0.751919	0.901889
	Co4332	Co	0.379291	0.780301	0.623656
	Co4333	Co	0.316789	0.718002	0.627793
	Co4334	Co	0.254324	0.655477	0.877867
	Co4335	Co	0.316812	0.717675	0.878203
	C4336	C	0.265567	0.745397	0.923377
	C4337	C	0.329664	0.693698	0.925238
	C4338	C	0.303936	0.742172	0.580358
	C4339	C	0.368083	0.697808	0.577481
	C4340	C	0.303939	0.742071	0.924423
	C4341	C	0.367993	0.696938	0.922606
	C4342	C	0.265514	0.744609	0.579714
	C4343	C	0.329745	0.694278	0.579820
	C4344	C	0.304572	0.692726	0.674971
	C4345	C	0.366991	0.755727	0.671866
	C4346	C	0.266418	0.681680	0.829668
	C4347	C	0.328948	0.743657	0.830458
	C4348	C	0.266458	0.681257	0.674337
	C4349	C	0.328827	0.744322	0.675091
	C4350	C	0.304553	0.692585	0.830285
	C4351	C	0.367069	0.755198	0.827188
	C4352	C	0.269940	0.742518	1.001061
	C4353	C	0.334137	0.691261	0.501841
	C4354	C	0.299543	0.745100	1.002229
	C4355	C	0.363592	0.698516	0.500039
	C4356	C	0.300280	0.689419	0.752456
	C4357	C	0.362715	0.752324	0.749657
	C4358	C	0.270695	0.685054	0.751987
	C4359	C	0.333161	0.747607	0.752359
	C4360	C	0.277447	0.742309	1.001366
	C4361	C	0.341608	0.691436	0.501328
	C4362	C	0.292023	0.745437	1.002050
	C4363	C	0.356125	0.696659	0.500585
	C4364	C	0.292794	0.687727	0.752419
	C4365	C	0.355235	0.750626	0.750424
	C4366	C	0.278164	0.687208	0.752043
	C4367	C	0.340626	0.749828	0.751524
	C4368	C	0.281231	0.743533	0.917541
	C4369	C	0.345300	0.693088	0.917931
	C4370	C	0.288286	0.744604	0.418378
	C4371	C	0.352432	0.694548	0.584714
	C4372	C	0.288292	0.744927	0.917910
	C4373	C	0.352339	0.695485	0.917495
	C4374	C	0.281213	0.743237	0.418178
	C4375	C	0.345391	0.692146	0.584872
	C4376	C	0.289035	0.687260	0.668216
	C4377	C	0.351444	0.749906	0.666511
	C4378	C	0.281925	0.687617	0.835956
	C4379	C	0.344414	0.750719	0.835486
	C4380	C	0.281955	0.687015	0.668093
	C4381	C	0.344370	0.749401	0.667026
	C4382	C	0.288994	0.688014	0.836238
	C4383	C	0.351493	0.751124	0.835034
	N4384	N	0.259073	0.750308	0.952451
	N4385	N	0.323201	0.698812	0.954614
	N4386	N	0.310389	0.736899	0.551605
	N4387	N	0.374663	0.695248	0.548479
	N4388	N	0.310390	0.736829	0.953683
	N4389	N	0.374591	0.694565	0.950648
	N4390	N	0.259055	0.749748	0.550398
	N4391	N	0.323261	0.699144	0.551471
	N4392	N	0.310885	0.698540	0.704065
	N4393	N	0.373330	0.761170	0.700373
	N4394	N	0.260167	0.675113	0.800882
	N4395	N	0.322668	0.737321	0.801778
	N4396	N	0.260180	0.674881	0.703498
	N4397	N	0.322581	0.737758	0.704493
	N4398	N	0.310875	0.698362	0.801881
	N4399	N	0.373388	0.760882	0.797724
	H4400	H	0.264898	0.856882	0.348527
	H4401	H	0.329099	0.805830	0.350564
	H4402	H	0.301115	0.856624	0.155047
	H4403	H	0.365410	0.807045	0.151367
	H4404	H	0.300976	0.856283	0.350304
	H4405	H	0.365185	0.806025	0.346348
	H4406	H	0.264986	0.855951	0.152843
	H4407	H	0.329358	0.806611	0.154998
	H4408	H	0.301888	0.804245	0.099821
	H4409	H	0.364322	0.867282	0.096515
	H4410	H	0.265831	0.796812	0.403658
	H4411	H	0.328516	0.858418	0.405492
	H4412	H	0.265974	0.795410	0.098538
	H4413	H	0.328353	0.859430	0.101316
	H4414	H	0.301842	0.803821	0.405274
	H4415	H	0.364544	0.866169	0.401432
	H4416	H	0.276699	0.855119	0.652874
	H4417	H	0.340990	0.806240	0.349757
	H4418	H	0.289208	0.857402	0.153903
	H4419	H	0.353529	0.806870	0.151898
	H4420	H	0.289049	0.857291	0.654160
	H4421	H	0.353362	0.808548	0.348911
	H4422	H	0.276845	0.854961	0.152961
	H4423	H	0.341228	0.804689	0.153020
	H4424	H	0.290115	0.800501	0.403182
	H4425	H	0.352711	0.863684	0.402018
	H4426	H	0.277758	0.799530	0.099784
	H4427	H	0.340133	0.861775	0.100276
	H4428	H	0.277698	0.799890	0.403341
	H4429	H	0.340295	0.863181	0.403874
	H4430	H	0.290171	0.800136	0.100474
	H4431	H	0.352526	0.862348	0.098703
	Co4432	Co	0.377644	0.894253	0.123295
	Co4433	Co	0.315199	0.831510	0.128358
	Co4434	Co	0.252641	0.769189	0.376662
	Co4435	Co	0.315111	0.831575	0.378572
	C4436	C	0.263716	0.857869	0.423217
	C4437	C	0.327974	0.807532	0.425090
	C4438	C	0.302263	0.855262	0.080075
	C4439	C	0.366537	0.805309	0.077015
	C4440	C	0.302144	0.855161	0.425149
	C4441	C	0.366398	0.804682	0.421674
	C4442	C	0.263856	0.857501	0.078491
	C4443	C	0.328113	0.807744	0.080739
	C4444	C	0.303007	0.805796	0.174832
	C4445	C	0.365449	0.868494	0.171549
	C4446	C	0.264775	0.794850	0.328714
	C4447	C	0.327334	0.857099	0.330874
	C4448	C	0.264841	0.794171	0.173285
	C4449	C	0.327257	0.857527	0.175702
	C4450	C	0.303000	0.805536	0.330378
	C4451	C	0.365568	0.867957	0.326457
	C4452	C	0.268110	0.855152	0.500807
	C4453	C	0.332503	0.804808	0.002359
	C4454	C	0.297720	0.857737	0.502770
	C4455	C	0.362063	0.807911	-0.000445
	C4456	C	0.298706	0.802116	0.252448
	C4457	C	0.361209	0.864762	0.249537
	C4458	C	0.269143	0.797867	0.251187
	C4459	C	0.331588	0.860939	0.253134
	C4460	C	0.275620	0.854849	0.501203
	C4461	C	0.339985	0.804878	0.001245
	C4462	C	0.290216	0.857736	0.502373
	C4463	C	0.354583	0.808187	0.000078
	C4464	C	0.291228	0.800297	0.252101
	C4465	C	0.353753	0.862999	0.250361
	C4466	C	0.276583	0.799714	0.251456
	C4467	C	0.339078	0.862767	0.252336
	C4468	C	0.279364	0.855592	0.585940
	C4469	C	0.343662	0.806438	0.417028
	C4470	C	0.286585	0.857042	0.086367
	C4471	C	0.350869	0.806906	0.084716
	C4472	C	0.286434	0.856947	0.586417
	C4473	C	0.350731	0.807906	0.416492
	C4474	C	0.279525	0.855483	0.085976
	C4475	C	0.343798	0.805414	0.085264
	C4476	C	0.287432	0.800317	0.336178
	C4477	C	0.350004	0.863254	0.335037
	C4478	C	0.280379	0.799670	0.167481
	C4479	C	0.342824	0.862316	0.167444
	C4480	C	0.280332	0.799918	0.335733
	C4481	C	0.342909	0.863049	0.336168
	C4482	C	0.287474	0.800016	0.167591
	C4483	C	0.349914	0.862613	0.166464
	N4484	N	0.257218	0.862698	0.452173
	N4485	N	0.321528	0.812649	0.454721
	N4486	N	0.308753	0.850235	0.051453
	N4487	N	0.372986	0.799907	0.047280
	N4488	N	0.308625	0.850427	0.454273
	N4489	N	0.372862	0.799362	0.450183
	N4490	N	0.257371	0.862571	0.049491
	N4491	N	0.321623	0.812558	0.052532
	N4492	N	0.309273	0.811939	0.204259
	N4493	N	0.371748	0.874612	0.199690
	N4494	N	0.258515	0.788710	0.299896
	N4495	N	0.321071	0.850818	0.302241
	N4496	N	0.258548	0.788278	0.202340
	N4497	N	0.321008	0.851081	0.204974
	N4498	N	0.309269	0.811851	0.301596
	N4499	N	0.371819	0.874243	0.297229
	H4500	H	0.265058	0.856310	0.848994
	H4501	H	0.329164	0.805279	0.850799
	H4502	H	0.300977	0.856741	0.654981
	H4503	H	0.365311	0.806560	0.652489
	H4504	H	0.301170	0.856813	0.850204
	H4505	H	0.365227	0.805865	0.848047
	H4506	H	0.264819	0.855836	0.653328
	H4507	H	0.329300	0.806928	0.655228
	H4508	H	0.301875	0.804281	0.600320
	H4509	H	0.364285	0.867098	0.597888
	H4510	H	0.265810	0.796736	0.903054
	H4511	H	0.328514	0.857829	0.905230
	H4512	H	0.265997	0.795570	0.599324
	H4513	H	0.328250	0.859674	0.600645
	H4514	H	0.301846	0.804192	0.904844
	H4515	H	0.364502	0.866411	0.901214
	H4516	H	0.276944	0.855438	0.849824
	H4517	H	0.341023	0.806267	0.849713
	H4518	H	0.289158	0.857252	0.350510
	H4519	H	0.353519	0.806996	0.652408
	H4520	H	0.289291	0.857808	0.850397
	H4521	H	0.353388	0.808673	0.848734
	H4522	H	0.276786	0.855127	0.349489
	H4523	H	0.341153	0.804538	0.653240
	H4524	H	0.290135	0.800221	0.600527
	H4525	H	0.352537	0.862540	0.599020
	H4526	H	0.277663	0.800129	0.903241
	H4527	H	0.340242	0.863342	0.903506
	H4528	H	0.277741	0.799364	0.600057
	H4529	H	0.340117	0.861747	0.600109
	H4530	H	0.290050	0.800901	0.903827
	H4531	H	0.352628	0.864099	0.902302
	Co4532	Co	0.377686	0.893949	0.623547
	Co4533	Co	0.315114	0.831710	0.628252
	Co4534	Co	0.252585	0.769131	0.876895
	Co4535	Co	0.315151	0.831223	0.878725
	C4536	C	0.263897	0.857687	0.923478
	C4537	C	0.328001	0.807132	0.925431
	C4538	C	0.302135	0.855292	0.580632
	C4539	C	0.366472	0.805150	0.577289
	C4540	C	0.302290	0.855379	0.924938
	C4541	C	0.366450	0.804726	0.921593
	C4542	C	0.263698	0.857476	0.578403
	C4543	C	0.328083	0.808077	0.580563
	C4544	C	0.302998	0.805672	0.675009
	C4545	C	0.365446	0.868466	0.671768
	C4546	C	0.264721	0.794924	0.829026
	C4547	C	0.327359	0.856680	0.830548
	C4548	C	0.264804	0.794271	0.673555
	C4549	C	0.327230	0.857590	0.675362
	C4550	C	0.302959	0.805766	0.830196
	C4551	C	0.365567	0.868035	0.826877
	C4552	C	0.268274	0.854934	1.001071
	C4553	C	0.332452	0.805179	0.502203
	C4554	C	0.297884	0.857991	1.002406
	C4555	C	0.362045	0.807884	0.499615
	C4556	C	0.298659	0.802221	0.752478
	C4557	C	0.361201	0.864797	0.749949
	C4558	C	0.269090	0.798194	0.751395
	C4559	C	0.331590	0.860677	0.752748
	C4560	C	0.275788	0.854785	1.001516
	C4561	C	0.339949	0.805072	0.501485
	C4562	C	0.290375	0.858037	1.002173
	C4563	C	0.354541	0.808255	0.500381
	C4564	C	0.291212	0.800427	0.752235
	C4565	C	0.353723	0.863036	0.750694
	C4566	C	0.276560	0.800044	0.751487
	C4567	C	0.339053	0.862590	0.752064
	C4568	C	0.279580	0.855853	0.917403
	C4569	C	0.343695	0.806204	0.916793
	C4570	C	0.286488	0.856913	0.417678
	C4571	C	0.350826	0.806879	0.585169
	C4572	C	0.286638	0.857319	0.917615
	C4573	C	0.350780	0.807813	0.916237
	C4574	C	0.279419	0.855616	0.417032
	C4575	C	0.343752	0.805484	0.585684
	C4576	C	0.287456	0.800082	0.667792
	C4577	C	0.349908	0.862498	0.666598
	C4578	C	0.280320	0.800253	0.835859
	C4579	C	0.342872	0.863124	0.835882
	C4580	C	0.280350	0.799811	0.667389
	C4581	C	0.342801	0.862218	0.667250
	C4582	C	0.287423	0.800492	0.836421
	C4583	C	0.349961	0.863462	0.835104
	N4584	N	0.257403	0.862618	0.952025
	N4585	N	0.321561	0.812266	0.954873
	N4586	N	0.308631	0.850488	0.551911
	N4587	N	0.372917	0.799535	0.547619
	N4588	N	0.308769	0.850342	0.953900
	N4589	N	0.372910	0.799525	0.949976
	N4590	N	0.257206	0.862460	0.549624
	N4591	N	0.321589	0.813015	0.552025
	N4592	N	0.309265	0.811824	0.704179
	N4593	N	0.371741	0.874612	0.700228
	N4594	N	0.258491	0.788438	0.799912
	N4595	N	0.321066	0.850733	0.802320
	N4596	N	0.258542	0.788048	0.702593
	N4597	N	0.320980	0.851173	0.705003
	N4598	N	0.309232	0.811926	0.801468
	N4599	N	0.371819	0.874289	0.797619
	H4600	H	0.263251	0.968153	0.348702
	H4601	H	0.327356	0.918200	0.350435
	H4602	H	0.299320	0.969616	0.153965
	H4603	H	0.363587	0.919458	0.151632
	H4604	H	0.299309	0.969004	0.350308
	H4605	H	0.363525	0.918720	0.347184
	H4606	H	0.263177	0.968559	0.153564
	H4607	H	0.327504	0.919414	0.154939
	H4608	H	0.300192	0.916650	0.100130
	H4609	H	0.362538	0.979489	0.096797
	H4610	H	0.264064	0.909035	0.403684
	H4611	H	0.326748	0.970749	0.405099
	H4612	H	0.264129	0.908479	0.099006
	H4613	H	0.326648	0.971883	0.100594
	H4614	H	0.300142	0.916510	0.404825
	H4615	H	0.362753	0.978682	0.402170
	H4616	H	0.275078	0.967386	0.350013
	H4617	H	0.339405	0.917390	0.653606
	H4618	H	0.287395	0.970098	-0.150017
	H4619	H	0.351606	0.920719	-0.151586
	H4620	H	0.287439	0.969789	0.350524
	H4621	H	0.351791	0.919590	0.652561
	H4622	H	0.275087	0.967529	-0.149743
	H4623	H	0.339219	0.918396	-0.150138
	H4624	H	0.288327	0.913143	0.100039
	H4625	H	0.350781	0.974905	0.098927
	H4626	H	0.275930	0.911746	0.403481
	H4627	H	0.338517	0.975236	0.404248
	H4628	H	0.275944	0.912391	0.100046
	H4629	H	0.338376	0.974194	0.100497
	H4630	H	0.288343	0.912356	0.403982
	H4631	H	0.350911	0.975975	0.402631
	Co4632	Co	0.375884	1.006456	0.123095
	Co4633	Co	0.313409	0.944192	0.127729
	Co4634	Co	0.250807	0.881858	0.376774
	Co4635	Co	0.313369	0.943918	0.377943
	C4636	C	0.262054	0.969743	0.423364
	C4637	C	0.326279	0.919965	0.425230
	C4638	C	0.300469	0.967885	0.079553
	C4639	C	0.364743	0.918097	0.076867
	C4640	C	0.300455	0.967653	0.424896
	C4641	C	0.364732	0.917546	0.421843
	C4642	C	0.262020	0.969996	0.079082
	C4643	C	0.326336	0.920292	0.080296
	C4644	C	0.301257	0.918199	0.174727
	C4645	C	0.363647	0.980872	0.171791
	C4646	C	0.263016	0.907327	0.329077
	C4647	C	0.325578	0.969366	0.330772
	C4648	C	0.263066	0.907018	0.173900
	C4649	C	0.325512	0.969965	0.175347
	C4650	C	0.301244	0.918029	0.329912
	C4651	C	0.363763	0.980471	0.326957
	C4652	C	0.266454	0.967191	0.501212
	C4653	C	0.330685	0.917297	0.002318
	C4654	C	0.296023	0.970476	0.502332
	C4655	C	0.360317	0.920500	-0.000529
	C4656	C	0.296967	0.914513	0.252151
	C4657	C	0.359422	0.977125	0.249774
	C4658	C	0.267341	0.910560	0.251608
	C4659	C	0.329829	0.973161	0.252957
	C4660	C	0.273951	0.967129	0.501485
	C4661	C	0.338205	0.917205	0.001430
	C4662	C	0.288530	0.970424	0.502188
	C4663	C	0.352799	0.920480	0.000077
	C4664	C	0.289485	0.912620	0.252048
	C4665	C	0.351966	0.975290	0.250638
	C4666	C	0.274827	0.912262	0.251814
	C4667	C	0.337331	0.974970	0.252361
	C4668	C	0.277722	0.967881	0.417307
	C4669	C	0.342041	0.918090	0.586267
	C4670	C	0.284795	0.969527	-0.082400
	C4671	C	0.348986	0.919919	-0.084019
	C4672	C	0.284790	0.969395	0.417750
	C4673	C	0.349111	0.919523	0.585551
	C4674	C	0.277728	0.968100	-0.082454
	C4675	C	0.341921	0.918444	-0.083234
	C4676	C	0.285697	0.912773	0.167663
	C4677	C	0.348145	0.974960	0.166660
	C4678	C	0.278615	0.912027	0.336302
	C4679	C	0.341141	0.975250	0.336534
	C4680	C	0.278613	0.912479	0.167506
	C4681	C	0.341068	0.974800	0.167465
	C4682	C	0.285695	0.912308	0.336422
	C4683	C	0.348227	0.975412	0.335523
	N4684	N	0.255577	0.974765	0.452083
	N4685	N	0.319803	0.924985	0.453993
	N4686	N	0.306951	0.962916	0.050748
	N4687	N	0.371242	0.913211	0.047369
	N4688	N	0.306927	0.962780	0.453898
	N4689	N	0.371231	0.912531	0.449883
	N4690	N	0.255542	0.974869	0.050028
	N4691	N	0.319838	0.925136	0.052240
	N4692	N	0.307527	0.924504	0.203578
	N4693	N	0.369942	0.987009	0.199925
	N4694	N	0.256736	0.901186	0.300015
	N4695	N	0.319276	0.963395	0.301721
	N4696	N	0.256769	0.901003	0.202601
	N4697	N	0.319226	0.963767	0.204441
	N4698	N	0.307514	0.924403	0.301168
	N4699	N	0.370019	0.986755	0.297413
	H4700	H	0.263217	0.968647	0.849379
	H4701	H	0.327338	0.917857	0.850835
	H4702	H	0.299285	0.969412	0.654908
	H4703	H	0.363720	0.919638	0.651764
	H4704	H	0.299290	0.968735	0.849284
	H4705	H	0.363467	0.918996	0.847177
	H4706	H	0.263198	0.968768	0.653588
	H4707	H	0.327446	0.919214	0.655016
	H4708	H	0.300070	0.916541	0.599628
	H4709	H	0.362497	0.979757	0.597276
	H4710	H	0.264042	0.909233	0.903333
	H4711	H	0.326786	0.970083	0.905034
	H4712	H	0.264185	0.908535	0.599128
	H4713	H	0.326520	0.971863	0.600779
	H4714	H	0.299996	0.916478	0.904427
	H4715	H	0.362687	0.978558	0.901334
	H4716	H	0.275032	0.968049	1.153510
	H4717	H	0.339420	0.916891	1.152777
	H4718	H	0.287368	0.969868	0.654053
	H4719	H	0.351618	0.920640	0.349089
	H4720	H	0.287404	0.970199	1.153708
	H4721	H	0.351789	0.919356	1.151592
	H4722	H	0.275034	0.967570	0.653298
	H4723	H	0.339269	0.918544	0.350468
	H4724	H	0.288209	0.913596	0.903681
	H4725	H	0.350718	0.975023	0.598769
	H4726	H	0.275882	0.912228	0.599493
	H4727	H	0.338466	0.975071	0.903297
	H4728	H	0.275830	0.912932	0.903116
	H4729	H	0.338348	0.974537	0.600019
	H4730	H	0.288296	0.912722	0.600165
	H4731	H	0.350877	0.975563	0.901950
	Co4732	Co	0.375856	1.006416	0.623738
	Co4733	Co	0.313294	0.943980	0.627546
	Co4734	Co	0.250885	0.881282	0.876239
	Co4735	Co	0.313368	0.943464	0.878254
	C4736	C	0.262042	0.969982	0.923903
	C4737	C	0.326233	0.919521	0.925397
	C4738	C	0.300443	0.968027	0.580124
	C4739	C	0.364825	0.918007	0.576796
	C4740	C	0.300449	0.967479	0.924133
	C4741	C	0.364686	0.917814	0.921449
	C4742	C	0.262037	0.969906	0.578834
	C4743	C	0.326312	0.920328	0.580295
	C4744	C	0.301181	0.918165	0.674536
	C4745	C	0.363634	0.980776	0.671594
	C4746	C	0.262939	0.907442	0.828645
	C4747	C	0.325559	0.968964	0.830374
	C4748	C	0.262992	0.907033	0.673358
	C4749	C	0.325427	0.969899	0.675166
	C4750	C	0.301170	0.917990	0.829910
	C4751	C	0.363742	0.980238	0.826808
	C4752	C	0.266447	0.967433	1.001653
	C4753	C	0.330699	0.917532	0.502666
	C4754	C	0.296031	0.970307	1.001842
	C4755	C	0.360379	0.920456	0.499808
	C4756	C	0.296844	0.914663	0.752064
	C4757	C	0.359377	0.977033	0.749622
	C4758	C	0.267278	0.910819	0.750998
	C4759	C	0.329814	0.972977	0.752470
	C4760	C	0.273950	0.967377	1.001947
	C4761	C	0.338222	0.917558	0.502187
	C4762	C	0.288538	0.970381	1.001926
	C4763	C	0.352845	0.920640	0.500941
	C4764	C	0.289380	0.913034	0.751766
	C4765	C	0.351934	0.975140	0.750368
	C4766	C	0.274737	0.912679	0.751259
	C4767	C	0.337283	0.974884	0.751837
	C4768	C	0.277701	0.968439	1.086503
	C4769	C	0.342022	0.917810	1.085307
	C4770	C	0.284758	0.969550	0.586360
	C4771	C	0.349016	0.920094	0.416944
	C4772	C	0.284777	0.969715	1.086285
	C4773	C	0.349078	0.919325	1.084786
	C4774	C	0.277692	0.968022	0.586106
	C4775	C	0.341959	0.918658	0.417510
	C4776	C	0.285595	0.913184	0.835949
	C4777	C	0.348112	0.975000	0.666328
	C4778	C	0.278528	0.912508	0.667036
	C4779	C	0.341089	0.974996	0.835836
	C4780	C	0.278498	0.912872	0.835734
	C4781	C	0.341011	0.974845	0.667150
	C4782	C	0.285627	0.912774	0.667354
	C4783	C	0.348185	0.975197	0.835095
	N4784	N	0.255555	0.974817	0.952436
	N4785	N	0.319762	0.924633	0.954762
	N4786	N	0.306926	0.963001	0.551352
	N4787	N	0.371303	0.912871	0.547372
	N4788	N	0.306931	0.962649	0.953251
	N4789	N	0.371197	0.912949	0.950109
	N4790	N	0.255556	0.974803	0.549647
	N4791	N	0.319824	0.925296	0.551497
	N4792	N	0.307466	0.924192	0.703668
	N4793	N	0.369915	0.986932	0.699885
	N4794	N	0.256693	0.901062	0.799564
	N4795	N	0.319286	0.962939	0.801909
	N4796	N	0.256711	0.900997	0.702042
	N4797	N	0.319195	0.963384	0.704623
	N4798	N	0.307470	0.924065	0.800842
	N4799	N	0.369981	0.986653	0.797328
	H4800	H	0.388274	0.093664	0.347757
	H4801	H	0.452410	0.043878	0.349312
	H4802	H	0.424257	0.093114	0.154049
	H4803	H	0.488642	0.044182	0.152618
	H4804	H	0.424347	0.094534	0.350059
	H4805	H	0.488509	0.043814	0.347918
	H4806	H	0.388193	0.093596	0.151420
	H4807	H	0.452555	0.043251	0.154062
	H4808	H	0.425267	0.040725	0.100533
	H4809	H	0.487613	0.104072	0.099911
	H4810	H	0.389170	0.033385	0.401495
	H4811	H	0.451652	0.096589	0.403772
	H4812	H	0.389247	0.033642	0.096784
	H4813	H	0.451733	0.095543	0.099696
	H4814	H	0.425061	0.041877	0.404080
	H4815	H	0.487664	0.103985	0.403935
	H4816	H	0.400002	0.092799	0.653216
	H4817	H	0.464298	0.042353	0.349421
	H4818	H	0.412383	0.095331	0.152761
	H4819	H	0.476701	0.045122	-0.150932
	H4820	H	0.412382	0.095331	0.653910
	H4821	H	0.476693	0.044780	0.349197
	H4822	H	0.400018	0.092815	0.151624
	H4823	H	0.464354	0.042813	-0.150374
	H4824	H	0.413474	0.038396	0.099411
	H4825	H	0.475936	0.100100	0.403463
	H4826	H	0.400917	0.036410	0.401348
	H4827	H	0.463486	0.099680	0.100157
	H4828	H	0.401037	0.037753	0.098759
	H4829	H	0.463458	0.099459	0.404037
	H4830	H	0.413305	0.036992	0.402231
	H4831	H	0.475882	0.100502	0.100541
	Co4832	Co	0.500877	0.131240	0.125893
	Co4833	Co	0.438429	0.068407	0.127403
	Co4834	Co	0.375923	0.006231	0.373863
	Co4835	Co	0.438381	0.069224	0.377362
	C4836	C	0.387076	0.095036	0.422342
	C4837	C	0.451291	0.045061	0.423978
	C4838	C	0.425450	0.092246	0.079494
	C4839	C	0.489817	0.042731	0.077752
	C4840	C	0.425447	0.092969	0.424644
	C4841	C	0.489700	0.042524	0.422681
	C4842	C	0.387050	0.094654	0.076899
	C4843	C	0.451376	0.044796	0.079379
	C4844	C	0.426332	0.042573	0.174598
	C4845	C	0.488747	0.105474	0.174016
	C4846	C	0.388074	0.032012	0.326710
	C4847	C	0.450528	0.094711	0.329522
	C4848	C	0.388103	0.031998	0.171371
	C4849	C	0.450587	0.094167	0.174315
	C4850	C	0.426227	0.043264	0.329931
	C4851	C	0.488780	0.105501	0.329378
	C4852	C	0.391423	0.092351	0.500612
	C4853	C	0.455784	0.042260	0.001663
	C4854	C	0.421027	0.095115	0.502333
	C4855	C	0.485383	0.045341	0.000471
	C4856	C	0.421997	0.039323	0.251885
	C4857	C	0.484463	0.102033	0.252016
	C4858	C	0.392382	0.035509	0.249100
	C4859	C	0.454879	0.097895	0.252058
	C4860	C	0.398937	0.092012	0.501512
	C4861	C	0.463276	0.042250	0.001386
	C4862	C	0.413522	0.095162	0.502390
	C4863	C	0.477881	0.045430	0.000826
	C4864	C	0.414525	0.037514	0.251000
	C4865	C	0.476990	0.100189	0.252119
	C4866	C	0.399866	0.037260	0.249868
	C4867	C	0.462337	0.099709	0.252335
	C4868	C	0.402678	0.093122	0.586103
	C4869	C	0.466948	0.042820	0.416764
	C4870	C	0.409768	0.094715	0.085205
	C4871	C	0.474088	0.044769	-0.083322
	C4872	C	0.409740	0.094577	0.586696
	C4873	C	0.474013	0.044463	0.416262
	C4874	C	0.402710	0.093196	0.084628
	C4875	C	0.467013	0.043230	-0.083136
	C4876	C	0.410793	0.037812	0.166484
	C4877	C	0.473215	0.100014	0.336636
	C4878	C	0.403602	0.036934	0.334333
	C4879	C	0.466108	0.099687	0.167913
	C4880	C	0.403693	0.037666	0.166050
	C4881	C	0.466104	0.099744	0.336722
	C4882	C	0.410692	0.037093	0.334853
	C4883	C	0.473205	0.100167	0.167659
	N4884	N	0.380566	0.100011	0.450399
	N4885	N	0.444824	0.050096	0.453061
	N4886	N	0.431943	0.087212	0.051203
	N4887	N	0.496282	0.037663	0.048889
	N4888	N	0.431916	0.087866	0.453528
	N4889	N	0.496193	0.037613	0.451371
	N4890	N	0.380570	0.099600	0.047510
	N4891	N	0.444894	0.049838	0.050700
	N4892	N	0.432578	0.048951	0.203966
	N4893	N	0.495023	0.111652	0.202783
	N4894	N	0.381803	0.025864	0.297601
	N4895	N	0.444247	0.088603	0.300522
	N4896	N	0.381821	0.025801	0.200252
	N4897	N	0.444307	0.088092	0.203186
	N4898	N	0.432516	0.049371	0.301370
	N4899	N	0.495045	0.111668	0.300070
	H4900	H	0.388287	0.093364	0.847463
	H4901	H	0.452503	0.043711	0.849589
	H4902	H	0.424266	0.093349	0.654344
	H4903	H	0.488574	0.044393	0.652393
	H4904	H	0.424439	0.094511	0.850074
	H4905	H	0.488623	0.043714	0.848320
	H4906	H	0.388066	0.093540	0.652434
	H4907	H	0.452460	0.043345	0.653446
	H4908	H	0.425121	0.041341	0.600192
	H4909	H	0.487499	0.104454	0.597761
	H4910	H	0.389056	0.033597	0.902481
	H4911	H	0.451590	0.096204	0.903800
	H4912	H	0.389207	0.033538	0.597954
	H4913	H	0.451631	0.095906	0.599451
	H4914	H	0.425018	0.041533	0.904959
	H4915	H	0.487635	0.103851	0.903333
	H4916	H	0.400120	0.092416	0.848569
	H4917	H	0.464412	0.042588	1.152673
	H4918	H	0.412476	0.094185	0.351059
	H4919	H	0.476731	0.044858	0.652008
	H4920	H	0.412522	0.094748	0.849152
	H4921	H	0.476789	0.044817	1.152558
	H4922	H	0.400145	0.091682	0.349836
	H4923	H	0.464360	0.042757	0.653098
	H4924	H	0.413386	0.038273	0.600567
	H4925	H	0.475744	0.100434	0.599057
	H4926	H	0.400847	0.036701	0.902544
	H4927	H	0.463397	0.099543	0.903247
	H4928	H	0.400953	0.037521	0.599598
	H4929	H	0.463333	0.099630	0.599614
	H4930	H	0.413263	0.037216	0.903411
	H4931	H	0.475831	0.100408	0.902617
	Co4932	Co	0.500806	0.131459	0.625333
	Co4933	Co	0.438373	0.068498	0.627142
	Co4934	Co	0.375844	0.006139	0.873724
	Co4935	Co	0.438372	0.068583	0.877441
	C4936	C	0.387092	0.094675	0.921742
	C4937	C	0.451351	0.045008	0.924039
	C4938	C	0.425411	0.092200	0.579688
	C4939	C	0.489726	0.042670	0.577957
	C4940	C	0.425521	0.092825	0.924586
	C4941	C	0.489795	0.042540	0.922754
	C4942	C	0.386974	0.095007	0.577561
	C4943	C	0.451297	0.044667	0.579186
	C4944	C	0.426240	0.042767	0.675133
	C4945	C	0.488637	0.105797	0.672664
	C4946	C	0.387949	0.032102	0.827447
	C4947	C	0.450457	0.094435	0.829263
	C4948	C	0.388046	0.031928	0.672236
	C4949	C	0.450482	0.094295	0.673916
	C4950	C	0.426178	0.043079	0.830445
	C4951	C	0.488706	0.105583	0.828404
	C4952	C	0.391468	0.092183	0.999460
	C4953	C	0.455705	0.042190	0.501313
	C4954	C	0.421088	0.095224	1.001635
	C4955	C	0.485310	0.045259	0.500321
	C4956	C	0.421881	0.039492	0.752682
	C4957	C	0.484359	0.102207	0.750780
	C4958	C	0.392320	0.035541	0.750217
	C4959	C	0.454779	0.097914	0.751648
	C4960	C	0.398989	0.092243	0.999829
	C4961	C	0.463200	0.042067	0.501141
	C4962	C	0.413573	0.095474	1.001101
	C4963	C	0.477787	0.045327	0.500471
	C4964	C	0.414429	0.037636	0.752138
	C4965	C	0.476904	0.100347	0.750877
	C4966	C	0.399788	0.037220	0.750919
	C4967	C	0.462244	0.099769	0.751568
	C4968	C	0.402777	0.092939	0.915752
	C4969	C	0.467063	0.043049	1.085460
	C4970	C	0.409791	0.093916	0.417892
	C4971	C	0.474036	0.044487	0.585154
	C4972	C	0.409837	0.094455	0.916315
	C4973	C	0.474138	0.044489	1.085294
	C4974	C	0.402733	0.092485	0.417372
	C4975	C	0.466967	0.043045	0.585424
	C4976	C	0.410683	0.037845	0.667476
	C4977	C	0.473102	0.100202	0.666661
	C4978	C	0.403523	0.036962	0.835466
	C4979	C	0.466041	0.099868	0.835751
	C4980	C	0.403587	0.037579	0.666821
	C4981	C	0.466001	0.099774	0.666968
	C4982	C	0.410632	0.037242	0.836180
	C4983	C	0.473149	0.100246	0.835364
	N4984	N	0.380586	0.099510	0.950331
	N4985	N	0.444869	0.049928	0.953279
	N4986	N	0.431902	0.087441	0.550932
	N4987	N	0.496219	0.037766	0.548775
	N4988	N	0.431973	0.087529	0.953659
	N4989	N	0.496267	0.037555	0.951439
	N4990	N	0.380502	0.099990	0.547931
	N4991	N	0.444810	0.049766	0.550597
	N4992	N	0.432498	0.048964	0.704155
	N4993	N	0.494921	0.111977	0.701638
	N4994	N	0.381699	0.025910	0.797897
	N4995	N	0.444201	0.088247	0.800509
	N4996	N	0.381757	0.025827	0.700699
	N4997	N	0.444225	0.088055	0.703145
	N4998	N	0.432463	0.049082	0.801606
	N4999	N	0.494957	0.111826	0.799093
	H5000	H	0.386563	0.205885	0.348019
	H5001	H	0.450644	0.155696	0.350352
	H5002	H	0.422492	0.206031	0.153732
	H5003	H	0.486775	0.156668	0.152524
	H5004	H	0.422588	0.206823	0.349730
	H5005	H	0.486718	0.156531	0.348638
	H5006	H	0.386510	0.205768	0.151781
	H5007	H	0.450730	0.156018	0.154055
	H5008	H	0.423413	0.153364	0.100562
	H5009	H	0.485870	0.216419	0.099274
	H5010	H	0.387280	0.146317	0.401647
	H5011	H	0.449928	0.208587	0.404264
	H5012	H	0.387385	0.145980	0.097900
	H5013	H	0.449845	0.208807	0.100407
	H5014	H	0.423233	0.154796	0.404795
	H5015	H	0.485841	0.216838	0.404132
	H5016	H	0.398382	0.204601	0.349520
	H5017	H	0.462532	0.155041	0.653321
	H5018	H	0.410663	0.208048	0.153000
	H5019	H	0.474986	0.157717	0.152711
	H5020	H	0.410791	0.207055	0.350210
	H5021	H	0.474894	0.157596	0.652930
	H5022	H	0.398246	0.205428	0.152341
	H5023	H	0.462641	0.155187	0.153112
	H5024	H	0.411612	0.151023	0.099834
	H5025	H	0.474007	0.212934	0.099964
	H5026	H	0.399060	0.149367	0.401910
	H5027	H	0.461654	0.212687	0.403845
	H5028	H	0.399187	0.150134	0.098495
	H5029	H	0.461642	0.212261	0.100316
	H5030	H	0.411394	0.150217	0.403581
	H5031	H	0.474049	0.213226	0.403646
	Co5032	Co	0.499127	0.243554	0.126323
	Co5033	Co	0.436604	0.181147	0.127533
	Co5034	Co	0.374060	0.118643	0.373977
	Co5035	Co	0.436639	0.181275	0.378006
	C5036	C	0.385337	0.207265	0.422510
	C5037	C	0.449483	0.157176	0.424629
	C5038	C	0.423688	0.204829	0.079900
	C5039	C	0.487964	0.155104	0.078571
	C5040	C	0.423725	0.205346	0.424599
	C5041	C	0.487909	0.154981	0.423300
	C5042	C	0.385295	0.207213	0.077373
	C5043	C	0.449572	0.157327	0.079922
	C5044	C	0.424492	0.155279	0.175204
	C5045	C	0.486965	0.217932	0.174014
	C5046	C	0.386194	0.144495	0.326846
	C5047	C	0.448767	0.207009	0.329685
	C5048	C	0.386243	0.144241	0.171766
	C5049	C	0.448754	0.207074	0.174477
	C5050	C	0.424386	0.155986	0.330241
	C5051	C	0.486945	0.218265	0.329479
	C5052	C	0.389721	0.204512	0.500474
	C5053	C	0.453992	0.154680	0.002036
	C5054	C	0.419289	0.207846	0.502106
	C5055	C	0.483567	0.158048	0.000942
	C5056	C	0.420119	0.152133	0.252459
	C5057	C	0.482625	0.214677	0.251941
	C5058	C	0.390532	0.147981	0.249422
	C5059	C	0.453063	0.210599	0.252211
	C5060	C	0.397229	0.204416	0.500977
	C5061	C	0.461490	0.154581	0.001547
	C5062	C	0.411785	0.207886	0.501665
	C5063	C	0.476066	0.158072	0.000941
	C5064	C	0.412669	0.150421	0.251670
	C5065	C	0.475165	0.212910	0.252024
	C5066	C	0.397987	0.149877	0.249919
	C5067	C	0.460516	0.212513	0.252259
	C5068	C	0.401011	0.205141	0.416715
	C5069	C	0.465169	0.155489	0.586202
	C5070	C	0.408033	0.207202	0.085716
	C5071	C	0.472333	0.157171	0.085510
	C5072	C	0.408070	0.206685	0.416978
	C5073	C	0.472252	0.156862	0.585785
	C5074	C	0.400957	0.205802	0.085412
	C5075	C	0.465269	0.155644	0.085826
	C5076	C	0.408922	0.150579	0.166948
	C5077	C	0.471379	0.212825	0.167579
	C5078	C	0.401723	0.149779	0.334637
	C5079	C	0.464303	0.212724	0.336563
	C5080	C	0.401815	0.150227	0.166069
	C5081	C	0.464285	0.212529	0.167581
	C5082	C	0.408828	0.150090	0.335447
	C5083	C	0.471401	0.212993	0.336318
	N5084	N	0.378843	0.212161	0.451003
	N5085	N	0.443016	0.162161	0.453912
	N5086	N	0.430160	0.200001	0.051180
	N5087	N	0.494430	0.150025	0.049697
	N5088	N	0.430202	0.200256	0.453968
	N5089	N	0.494401	0.150244	0.451796
	N5090	N	0.378810	0.211936	0.047838
	N5091	N	0.443092	0.162457	0.051026
	N5092	N	0.430732	0.161697	0.204291
	N5093	N	0.493250	0.224098	0.203174
	N5094	N	0.379936	0.138273	0.297697
	N5095	N	0.442504	0.200823	0.301105
	N5096	N	0.379971	0.138057	0.200529
	N5097	N	0.442488	0.200851	0.203616
	N5098	N	0.430667	0.162025	0.301710
	N5099	N	0.493227	0.224278	0.300530
	H5100	H	0.386594	0.205792	0.847675
	H5101	H	0.450698	0.156024	0.849808
	H5102	H	0.422485	0.206164	0.654721
	H5103	H	0.486752	0.156708	0.653786
	H5104	H	0.422610	0.206864	0.850080
	H5105	H	0.486828	0.156956	0.849196
	H5106	H	0.386427	0.205680	0.652199
	H5107	H	0.450715	0.156041	0.654803
	H5108	H	0.423394	0.153632	0.600427
	H5109	H	0.485761	0.216654	0.599212
	H5110	H	0.387341	0.146223	0.901271
	H5111	H	0.449867	0.209023	0.903806
	H5112	H	0.387417	0.145810	0.597195
	H5113	H	0.449879	0.208572	0.599435
	H5114	H	0.423272	0.154398	0.904323
	H5115	H	0.485828	0.216808	0.904349
	H5116	H	0.398423	0.204684	0.848974
	H5117	H	0.462586	0.154979	0.849704
	H5118	H	0.410660	0.207869	0.653095
	H5119	H	0.474830	0.157553	0.349831
	H5120	H	0.410772	0.207216	0.849388
	H5121	H	0.474965	0.157660	0.849349
	H5122	H	0.398289	0.205355	0.652838
	H5123	H	0.462496	0.154935	0.350466
	H5124	H	0.411603	0.150811	0.599278
	H5125	H	0.474084	0.213169	0.903150
	H5126	H	0.399109	0.149418	0.901766
	H5127	H	0.461693	0.212001	0.600299
	H5128	H	0.399208	0.150209	0.598511
	H5129	H	0.461673	0.212397	0.903486
	H5130	H	0.411506	0.150110	0.902399
	H5131	H	0.474060	0.212877	0.600363
	Co5132	Co	0.499106	0.243685	0.626230
	Co5133	Co	0.436620	0.181286	0.627505
	Co5134	Co	0.374189	0.118441	0.873689
	Co5135	Co	0.436641	0.181444	0.877356
	C5136	C	0.385356	0.207249	0.921906
	C5137	C	0.449563	0.157508	0.924502
	C5138	C	0.423667	0.205035	0.579861
	C5139	C	0.487937	0.155358	0.578713
	C5140	C	0.423743	0.205323	0.924417
	C5141	C	0.487996	0.155394	0.923515
	C5142	C	0.385269	0.207017	0.577660
	C5143	C	0.449501	0.157344	0.580010
	C5144	C	0.424513	0.155384	0.674578
	C5145	C	0.486940	0.218091	0.673842
	C5146	C	0.386247	0.144538	0.826915
	C5147	C	0.448761	0.207238	0.829589
	C5148	C	0.386291	0.144327	0.671895
	C5149	C	0.448783	0.206977	0.674167
	C5150	C	0.424426	0.155834	0.829734
	C5151	C	0.486952	0.218378	0.829493
	C5152	C	0.389753	0.204687	1.000010
	C5153	C	0.453925	0.154669	0.502217
	C5154	C	0.419294	0.207699	1.002072
	C5155	C	0.483482	0.157725	0.501192
	C5156	C	0.420145	0.152040	0.751687
	C5157	C	0.482637	0.214736	0.751775
	C5158	C	0.390592	0.147975	0.749483
	C5159	C	0.453090	0.210692	0.751907
	C5160	C	0.397259	0.204689	1.000771
	C5161	C	0.461412	0.154635	0.502053
	C5162	C	0.411825	0.207786	1.001593
	C5163	C	0.475997	0.157800	0.501458
	C5164	C	0.412692	0.150222	0.750932
	C5165	C	0.475180	0.212805	0.751859
	C5166	C	0.398035	0.149764	0.750001
	C5167	C	0.460532	0.212352	0.751939
	C5168	C	0.401049	0.205304	0.916445
	C5169	C	0.465243	0.155469	0.916902
	C5170	C	0.408003	0.207180	0.585763
	C5171	C	0.472220	0.157036	0.417460
	C5172	C	0.408120	0.206725	0.916829
	C5173	C	0.472312	0.157135	0.916639
	C5174	C	0.400945	0.205530	0.585406
	C5175	C	0.465145	0.155566	0.417679
	C5176	C	0.408950	0.150404	0.666401
	C5177	C	0.471399	0.212835	0.836148
	C5178	C	0.401781	0.149730	0.834532
	C5179	C	0.464304	0.212344	0.667763
	C5180	C	0.401839	0.150147	0.666062
	C5181	C	0.464297	0.212583	0.836102
	C5182	C	0.408880	0.149984	0.834950
	C5183	C	0.471409	0.212629	0.667589
	N5184	N	0.378844	0.212034	0.950836
	N5185	N	0.443076	0.162532	0.953440
	N5186	N	0.430148	0.199978	0.551008
	N5187	N	0.494414	0.150416	0.549573
	N5188	N	0.430205	0.200282	0.953603
	N5189	N	0.494446	0.150124	0.952460
	N5190	N	0.378798	0.212037	0.548327
	N5191	N	0.443034	0.162272	0.551178
	N5192	N	0.430750	0.161702	0.703771
	N5193	N	0.493213	0.224327	0.703023
	N5194	N	0.379991	0.138252	0.797593
	N5195	N	0.442509	0.200987	0.800768
	N5196	N	0.380022	0.138194	0.700327
	N5197	N	0.442522	0.200781	0.703290
	N5198	N	0.430696	0.161967	0.801155
	N5199	N	0.493221	0.224460	0.800366
	H5200	H	0.384782	0.319119	0.347822
	H5201	H	0.448967	0.268324	0.349858
	H5202	H	0.420768	0.318466	0.154394
	H5203	H	0.485020	0.268674	0.154168
	H5204	H	0.420795	0.319016	0.349958
	H5205	H	0.485061	0.269608	0.349692
	H5206	H	0.384639	0.318536	0.153257
	H5207	H	0.448934	0.268518	0.154368
	H5208	H	0.421637	0.265951	0.099874
	H5209	H	0.484121	0.328392	0.100617
	H5210	H	0.385496	0.258797	0.401684
	H5211	H	0.448147	0.321047	0.404825
	H5212	H	0.385711	0.257651	0.097440
	H5213	H	0.448249	0.320868	0.100473
	H5214	H	0.421526	0.266706	0.404458
	H5215	H	0.484049	0.329189	0.404904
	H5216	H	0.396514	0.317918	0.652405
	H5217	H	0.460834	0.267640	0.350324
	H5218	H	0.408893	0.320202	0.152032
	H5219	H	0.473189	0.269703	0.154085
	H5220	H	0.408901	0.320055	0.653225
	H5221	H	0.473181	0.270103	0.350226
	H5222	H	0.396528	0.318195	0.152431
	H5223	H	0.460845	0.267179	0.154182
	H5224	H	0.409734	0.262642	0.403040
	H5225	H	0.472337	0.325365	0.404564
	H5226	H	0.397455	0.262445	0.098727
	H5227	H	0.459923	0.324005	0.101376
	H5228	H	0.397325	0.261992	0.402387
	H5229	H	0.459925	0.324687	0.404312
	H5230	H	0.409835	0.263109	0.099735
	H5231	H	0.472350	0.324512	0.101194
	Co5232	Co	0.497326	0.356084	0.126534
	Co5233	Co	0.434874	0.293360	0.127054
	Co5234	Co	0.372409	0.230854	0.374304
	Co5235	Co	0.434849	0.293603	0.377430
	C5236	C	0.383589	0.320525	0.422777
	C5237	C	0.447765	0.269722	0.424637
	C5238	C	0.421920	0.317099	0.079504
	C5239	C	0.486223	0.267396	0.079374
	C5240	C	0.421979	0.317561	0.424906
	C5241	C	0.486235	0.268036	0.424053
	C5242	C	0.383527	0.320062	0.078135
	C5243	C	0.447802	0.269719	0.079693
	C5244	C	0.422729	0.267741	0.174519
	C5245	C	0.485224	0.330098	0.174911
	C5246	C	0.384451	0.257083	0.327125
	C5247	C	0.447029	0.319458	0.330162
	C5248	C	0.384541	0.256547	0.171803
	C5249	C	0.447089	0.319082	0.175122
	C5250	C	0.422686	0.267971	0.330086
	C5251	C	0.485197	0.330561	0.330160
	C5252	C	0.387989	0.317545	0.500696
	C5253	C	0.452220	0.267158	0.002203
	C5254	C	0.417542	0.320068	0.502564
	C5255	C	0.481816	0.270073	0.001843
	C5256	C	0.418391	0.264458	0.251987
	C5257	C	0.480913	0.326826	0.252555
	C5258	C	0.388800	0.260342	0.249624
	C5259	C	0.451351	0.322814	0.252746
	C5260	C	0.395477	0.317232	0.501049
	C5261	C	0.459708	0.267104	0.002241
	C5262	C	0.410047	0.320213	0.501940
	C5263	C	0.474304	0.270180	0.002046
	C5264	C	0.410910	0.262669	0.251440
	C5265	C	0.473457	0.324851	0.252723
	C5266	C	0.396248	0.262246	0.250446
	C5267	C	0.458823	0.324622	0.252815
	C5268	C	0.399206	0.318196	0.585530
	C5269	C	0.463471	0.267999	0.417629
	C5270	C	0.406236	0.319687	0.085078
	C5271	C	0.470547	0.269241	0.086598
	C5272	C	0.406276	0.319597	0.585895
	C5273	C	0.470554	0.269664	0.417388
	C5274	C	0.399176	0.318186	0.085171
	C5275	C	0.463479	0.267769	0.086551
	C5276	C	0.407087	0.262589	0.335579
	C5277	C	0.469688	0.324957	0.337027
	C5278	C	0.400064	0.262415	0.166516
	C5279	C	0.462593	0.324482	0.168541
	C5280	C	0.399991	0.262235	0.335149
	C5281	C	0.462597	0.324757	0.337054
	C5282	C	0.407162	0.262701	0.166910
	C5283	C	0.469683	0.324587	0.168499
	N5284	N	0.377108	0.325617	0.451374
	N5285	N	0.441309	0.274661	0.453526
	N5286	N	0.428422	0.312171	0.051192
	N5287	N	0.492713	0.262588	0.050397
	N5288	N	0.428443	0.312503	0.453928
	N5289	N	0.492697	0.262936	0.452920
	N5290	N	0.377075	0.325570	0.048775
	N5291	N	0.441304	0.274492	0.050798
	N5292	N	0.429011	0.273844	0.203671
	N5293	N	0.491486	0.336476	0.203720
	N5294	N	0.378218	0.250559	0.297743
	N5295	N	0.440777	0.313064	0.300808
	N5296	N	0.378280	0.250265	0.200191
	N5297	N	0.440790	0.312923	0.203728
	N5298	N	0.428982	0.274067	0.301152
	N5299	N	0.491475	0.336673	0.301147
	H5300	H	0.384737	0.318843	0.848469
	H5301	H	0.448939	0.268241	0.850128
	H5302	H	0.420755	0.318795	0.654741
	H5303	H	0.485013	0.268710	0.654179
	H5304	H	0.420890	0.319120	0.850304
	H5305	H	0.485003	0.269280	0.849607
	H5306	H	0.384697	0.318582	0.652817
	H5307	H	0.448995	0.268374	0.654334
	H5308	H	0.421665	0.265750	0.600592
	H5309	H	0.484178	0.328599	0.599386
	H5310	H	0.385567	0.258532	0.901844
	H5311	H	0.448176	0.320721	0.903926
	H5312	H	0.385695	0.258136	0.598007
	H5313	H	0.448135	0.320836	0.599891
	H5314	H	0.421515	0.266793	0.904987
	H5315	H	0.484140	0.329371	0.904274
	H5316	H	0.396597	0.316977	0.849838
	H5317	H	0.460810	0.268054	0.850492
	H5318	H	0.409005	0.319453	0.350439
	H5319	H	0.473154	0.269967	0.653386
	H5320	H	0.408990	0.319117	0.850080
	H5321	H	0.473182	0.270123	0.850410
	H5322	H	0.396645	0.317358	0.349707
	H5323	H	0.460859	0.267566	0.653919
	H5324	H	0.409798	0.261949	0.903220
	H5325	H	0.472360	0.325461	0.600145
	H5326	H	0.397461	0.262670	0.599571
	H5327	H	0.459957	0.324398	0.903944
	H5328	H	0.397374	0.261598	0.902430
	H5329	H	0.459956	0.324793	0.600209
	H5330	H	0.409898	0.263072	0.600221
	H5331	H	0.472361	0.325227	0.904054
	Co5332	Co	0.497414	0.355945	0.626346
	Co5333	Co	0.434886	0.293407	0.627393
	Co5334	Co	0.372406	0.230750	0.874516
	Co5335	Co	0.434900	0.293523	0.877494
	C5336	C	0.383577	0.320213	0.922814
	C5337	C	0.447792	0.269613	0.924466
	C5338	C	0.421959	0.317335	0.580343
	C5339	C	0.486194	0.267676	0.579686
	C5340	C	0.422004	0.317536	0.924612
	C5341	C	0.486214	0.267693	0.924174
	C5342	C	0.383531	0.320076	0.578196
	C5343	C	0.447785	0.269641	0.579769
	C5344	C	0.422763	0.267559	0.674983
	C5345	C	0.485252	0.330247	0.674379
	C5346	C	0.384508	0.256885	0.827523
	C5347	C	0.447078	0.319229	0.829296
	C5348	C	0.384568	0.256682	0.672577
	C5349	C	0.447069	0.319286	0.674105
	C5350	C	0.422686	0.268082	0.830244
	C5351	C	0.485240	0.330699	0.829666
	C5352	C	0.387933	0.317234	1.000790
	C5353	C	0.452240	0.267082	0.501973
	C5354	C	0.417570	0.320053	1.001705
	C5355	C	0.481762	0.270471	0.501757
	C5356	C	0.418441	0.264345	0.752546
	C5357	C	0.480972	0.326912	0.752130
	C5358	C	0.388824	0.260354	0.750234
	C5359	C	0.451353	0.322806	0.751768
	C5360	C	0.395445	0.317174	1.001050
	C5361	C	0.459715	0.267058	0.501921
	C5362	C	0.410041	0.320265	1.001124
	C5363	C	0.474304	0.270506	0.501586
	C5364	C	0.410949	0.262470	0.751810
	C5365	C	0.473486	0.324997	0.751995
	C5366	C	0.396302	0.262208	0.750787
	C5367	C	0.458822	0.324650	0.751970
	C5368	C	0.399240	0.317699	0.917007
	C5369	C	0.463461	0.268205	0.917865
	C5370	C	0.406337	0.319189	0.417393
	C5371	C	0.470549	0.269478	0.585910
	C5372	C	0.406293	0.319158	0.916838
	C5373	C	0.470532	0.269521	0.917733
	C5374	C	0.399263	0.317790	0.417061
	C5375	C	0.463467	0.267969	0.586266
	C5376	C	0.407141	0.262174	0.835899
	C5377	C	0.469702	0.325071	0.667574
	C5378	C	0.400117	0.262585	0.666719
	C5379	C	0.462614	0.324699	0.836346
	C5380	C	0.400053	0.261969	0.835281
	C5381	C	0.462617	0.324832	0.667572
	C5382	C	0.407199	0.262822	0.667106
	C5383	C	0.469695	0.324955	0.836408
	N5384	N	0.377104	0.325685	0.951336
	N5385	N	0.441293	0.274413	0.953183
	N5386	N	0.428429	0.312356	0.551373
	N5387	N	0.492665	0.262707	0.550682
	N5388	N	0.428472	0.312398	0.953809
	N5389	N	0.492701	0.262701	0.952902
	N5390	N	0.377077	0.325383	0.548837
	N5391	N	0.441325	0.274571	0.551067
	N5392	N	0.429046	0.273812	0.704011
	N5393	N	0.491514	0.336695	0.703366
	N5394	N	0.378251	0.250535	0.798481
	N5395	N	0.440810	0.312990	0.800766
	N5396	N	0.378288	0.250444	0.701187
	N5397	N	0.440817	0.312876	0.703324
	N5398	N	0.428990	0.274121	0.801179
	N5399	N	0.491501	0.337026	0.800696
	H5400	H	0.383243	0.427293	0.348206
	H5401	H	0.447269	0.381454	0.349176
	H5402	H	0.418990	0.432138	0.154768
	H5403	H	0.483209	0.380943	0.154544
	H5404	H	0.419231	0.433099	0.349701
	H5405	H	0.483339	0.381757	0.350218
	H5406	H	0.383128	0.426550	0.153164
	H5407	H	0.447150	0.381248	0.153823
	H5408	H	0.420023	0.379498	0.099544
	H5409	H	0.482461	0.442136	0.099508
	H5410	H	0.383964	0.371415	0.402919
	H5411	H	0.446564	0.433567	0.404111
	H5412	H	0.384151	0.370704	0.098148
	H5413	H	0.446585	0.433558	0.099189
	H5414	H	0.419932	0.379630	0.403854
	H5415	H	0.482394	0.442231	0.403350
	H5416	H	0.395015	0.429251	0.350312
	H5417	H	0.459141	0.380181	0.350809
	H5418	H	0.407151	0.433814	0.152119
	H5419	H	0.471399	0.382147	-0.149271
	H5420	H	0.407329	0.433402	0.350621
	H5421	H	0.471540	0.382272	0.351173
	H5422	H	0.394838	0.429719	0.151280
	H5423	H	0.458987	0.379841	-0.149996
	H5424	H	0.408216	0.376162	0.100049
	H5425	H	0.470726	0.437869	0.100304
	H5426	H	0.395832	0.374143	0.402104
	H5427	H	0.458321	0.437281	0.402467
	H5428	H	0.395834	0.375103	0.099647
	H5429	H	0.458325	0.436926	0.100288
	H5430	H	0.408216	0.375104	0.402459
	H5431	H	0.470723	0.437889	0.402510
	Co5432	Co	0.495683	0.469802	0.126219
	Co5433	Co	0.433151	0.407470	0.126470
	Co5434	Co	0.370685	0.344635	0.374987
	Co5435	Co	0.433220	0.407196	0.377376
	C5436	C	0.382000	0.427908	0.423188
	C5437	C	0.446086	0.382863	0.424109
	C5438	C	0.420209	0.431053	0.079866
	C5439	C	0.484376	0.379740	0.079681
	C5440	C	0.420376	0.431511	0.424541
	C5441	C	0.484506	0.380182	0.424672
	C5442	C	0.381894	0.427313	0.078465
	C5443	C	0.445983	0.382750	0.079014
	C5444	C	0.421092	0.381310	0.174213
	C5445	C	0.483572	0.443724	0.173875
	C5446	C	0.382884	0.369925	0.328216
	C5447	C	0.445416	0.432212	0.329358
	C5448	C	0.382962	0.369559	0.172912
	C5449	C	0.445414	0.432166	0.173942
	C5450	C	0.421058	0.381378	0.329335
	C5451	C	0.483566	0.443750	0.329013
	C5452	C	0.386442	0.426711	0.500923
	C5453	C	0.450386	0.379988	0.001256
	C5454	C	0.415917	0.434023	0.501886
	C5455	C	0.479983	0.382594	0.002004
	C5456	C	0.416785	0.377608	0.251595
	C5457	C	0.479272	0.440113	0.251556
	C5458	C	0.387251	0.373046	0.250690
	C5459	C	0.449754	0.435372	0.251793
	C5460	C	0.393900	0.428661	0.500966
	C5461	C	0.457893	0.379609	0.001442
	C5462	C	0.408418	0.433920	0.501340
	C5463	C	0.472477	0.382611	0.001890
	C5464	C	0.409346	0.375505	0.251267
	C5465	C	0.471838	0.437945	0.251578
	C5466	C	0.394710	0.374771	0.250924
	C5467	C	0.457204	0.437198	0.251648
	C5468	C	0.397648	0.430136	0.417088
	C5469	C	0.461768	0.380601	0.418064
	C5470	C	0.404564	0.432753	0.085034
	C5471	C	0.468720	0.381716	-0.082311
	C5472	C	0.404685	0.432616	0.417322
	C5473	C	0.468837	0.381916	0.418054
	C5474	C	0.397522	0.430349	0.084822
	C5475	C	0.461649	0.380313	-0.082801
	C5476	C	0.405575	0.375591	0.167076
	C5477	C	0.468064	0.437680	0.167433
	C5478	C	0.398481	0.374665	0.335123
	C5479	C	0.460984	0.437338	0.335390
	C5480	C	0.398478	0.375119	0.166909
	C5481	C	0.460968	0.437113	0.167377
	C5482	C	0.405569	0.375100	0.335380
	C5483	C	0.468085	0.437732	0.335503
	N5484	N	0.375411	0.430221	0.452053
	N5485	N	0.439607	0.387960	0.452971
	N5486	N	0.426707	0.426334	0.051178
	N5487	N	0.490870	0.374965	0.050979
	N5488	N	0.426840	0.426350	0.453672
	N5489	N	0.490978	0.375107	0.453402
	N5490	N	0.375312	0.429843	0.049585
	N5491	N	0.439527	0.388226	0.050099
	N5492	N	0.427324	0.387840	0.203088
	N5493	N	0.489820	0.450089	0.202898
	N5494	N	0.376606	0.364016	0.299070
	N5495	N	0.439119	0.426486	0.300517
	N5496	N	0.376665	0.363668	0.201515
	N5497	N	0.439089	0.426558	0.203124
	N5498	N	0.427309	0.387908	0.300547
	N5499	N	0.489809	0.450094	0.300165
	H5500	H	0.383185	0.426901	0.848586
	H5501	H	0.447144	0.381635	0.849112
	H5502	H	0.419115	0.432213	0.654391
	H5503	H	0.483339	0.380952	0.654058
	H5504	H	0.419148	0.433403	0.850075
	H5505	H	0.483277	0.381877	0.850254
	H5506	H	0.383218	0.426491	0.653434
	H5507	H	0.447247	0.381155	0.654337
	H5508	H	0.420083	0.379422	0.599790
	H5509	H	0.482541	0.442126	0.599926
	H5510	H	0.384085	0.371086	0.902453
	H5511	H	0.446551	0.433992	0.904124
	H5512	H	0.384204	0.370918	0.597738
	H5513	H	0.446562	0.433599	0.599769
	H5514	H	0.419963	0.380064	0.904127
	H5515	H	0.482440	0.442508	0.903823
	H5516	H	0.394960	0.429027	0.850039
	H5517	H	0.458976	0.379980	1.152948
	H5518	H	0.407245	0.433893	0.651925
	H5519	H	0.471464	0.382551	0.653545
	H5520	H	0.407260	0.433125	0.850460
	H5521	H	0.471343	0.382090	1.153549
	H5522	H	0.394972	0.429820	0.651391
	H5523	H	0.459078	0.380640	0.653390
	H5524	H	0.408260	0.375426	0.902374
	H5525	H	0.470793	0.437505	0.903152
	H5526	H	0.395937	0.374690	0.599994
	H5527	H	0.458380	0.437816	0.600385
	H5528	H	0.395886	0.374327	0.902135
	H5529	H	0.458360	0.436724	0.903208
	H5530	H	0.408360	0.375818	0.600593
	H5531	H	0.470745	0.438826	0.600324
	Co5532	Co	0.495723	0.469740	0.626075
	Co5533	Co	0.433249	0.407177	0.626969
	Co5534	Co	0.370718	0.344883	0.874851
	Co5535	Co	0.433167	0.407787	0.877272
	C5536	C	0.381931	0.427623	0.922889
	C5537	C	0.445989	0.383050	0.923525
	C5538	C	0.420304	0.431040	0.579864
	C5539	C	0.484503	0.379801	0.579480
	C5540	C	0.420288	0.431650	0.924471
	C5541	C	0.484439	0.380393	0.924749
	C5542	C	0.381996	0.427414	0.578665
	C5543	C	0.446083	0.382774	0.579710
	C5544	C	0.421174	0.381174	0.674249
	C5545	C	0.483616	0.443800	0.674400
	C5546	C	0.382954	0.369826	0.827679
	C5547	C	0.445455	0.432460	0.829579
	C5548	C	0.383021	0.369596	0.672362
	C5549	C	0.445475	0.432223	0.674124
	C5550	C	0.421119	0.381541	0.829622
	C5551	C	0.483582	0.443924	0.829433
	C5552	C	0.386371	0.426542	1.000799
	C5553	C	0.450496	0.380055	0.501785
	C5554	C	0.415813	0.433961	1.002016
	C5555	C	0.480095	0.382615	0.502110
	C5556	C	0.416865	0.377672	0.751759
	C5557	C	0.479323	0.440235	0.752047
	C5558	C	0.387322	0.372913	0.750280
	C5559	C	0.449784	0.435498	0.751930
	C5560	C	0.393827	0.428493	1.000842
	C5561	C	0.457992	0.379954	0.501881
	C5562	C	0.408333	0.433688	1.001452
	C5563	C	0.472583	0.382766	0.502120
	C5564	C	0.409416	0.375564	0.751365
	C5565	C	0.471875	0.438088	0.751908
	C5566	C	0.394782	0.374706	0.750846
	C5567	C	0.457254	0.437336	0.751981
	C5568	C	0.397580	0.429951	0.916937
	C5569	C	0.461641	0.380317	1.085912
	C5570	C	0.404646	0.432878	0.584958
	C5571	C	0.468800	0.382083	0.586341
	C5572	C	0.404621	0.432408	0.917423
	C5573	C	0.468706	0.381729	1.086121
	C5574	C	0.397619	0.430391	0.584700
	C5575	C	0.461728	0.380851	0.586117
	C5576	C	0.405628	0.375269	0.835333
	C5577	C	0.468112	0.437498	0.836043
	C5578	C	0.398572	0.374981	0.667053
	C5579	C	0.461023	0.437858	0.667700
	C5580	C	0.398535	0.374752	0.835052
	C5581	C	0.461028	0.437139	0.836100
	C5582	C	0.405663	0.375434	0.667283
	C5583	C	0.468099	0.438347	0.667659
	N5584	N	0.375335	0.429991	0.951454
	N5585	N	0.439537	0.388358	0.952667
	N5586	N	0.426788	0.426092	0.551235
	N5587	N	0.490988	0.374930	0.550569
	N5588	N	0.426771	0.426755	0.953598
	N5589	N	0.490917	0.375392	0.953598
	N5590	N	0.375403	0.429967	0.550055
	N5591	N	0.439604	0.387995	0.550593
	N5592	N	0.427409	0.387639	0.703426
	N5593	N	0.489870	0.450203	0.703312
	N5594	N	0.376643	0.364076	0.798185
	N5595	N	0.439128	0.426823	0.800676
	N5596	N	0.376687	0.363946	0.700932
	N5597	N	0.439130	0.426663	0.703219
	N5598	N	0.427387	0.387894	0.800713
	N5599	N	0.489836	0.450312	0.800550
	H5600	H	0.392688	0.636673	0.348696
	H5601	H	0.445671	0.489541	0.349540
	H5602	H	0.419945	0.551322	0.152178
	H5603	H	0.481589	0.495119	0.153817
	H5604	H	0.420152	0.551819	0.349726
	H5605	H	0.481635	0.495293	0.349673
	H5606	H	0.392492	0.636168	0.151558
	H5607	H	0.445662	0.489190	0.153579
	H5608	H	0.416991	0.492258	0.100297
	H5609	H	0.479506	0.554046	0.099962
	H5610	H	0.381437	0.479497	0.402305
	H5611	H	0.443979	0.542211	0.402851
	H5612	H	0.381426	0.479304	0.098629
	H5613	H	0.443905	0.542449	0.099421
	H5614	H	0.417034	0.491795	0.403422
	H5615	H	0.479475	0.554019	0.402575
	H5616	H	0.401727	0.609474	0.452073
	H5617	H	0.457464	0.492389	0.351133
	H5618	H	0.411041	0.578676	-0.016721
	H5619	H	0.469785	0.495643	-0.149403
	H5620	H	0.411290	0.580177	0.452098
	H5621	H	0.469780	0.496776	0.351458
	H5622	H	0.401489	0.607965	-0.017420
	H5623	H	0.457482	0.491499	-0.149360
	H5624	H	0.405247	0.491843	0.103329
	H5625	H	0.467772	0.553448	0.102708
	H5626	H	0.392841	0.488377	0.398923
	H5627	H	0.455326	0.552126	0.398914
	H5628	H	0.392842	0.489114	0.102723
	H5629	H	0.455359	0.551054	0.102654
	H5630	H	0.405206	0.490960	0.399593
	H5631	H	0.467724	0.554437	0.399300
	Co5632	Co	0.493774	0.572993	0.126274
	Co5633	Co	0.431313	0.510547	0.126354
	Co5634	Co	0.368800	0.447803	0.375523
	Co5635	Co	0.431289	0.510571	0.376608
	C5636	C	0.391757	0.639582	0.422711
	C5637	C	0.444448	0.490222	0.424079
	C5638	C	0.420804	0.548391	0.078804
	C5639	C	0.482781	0.493619	0.079683
	C5640	C	0.420883	0.548716	0.424211
	C5641	C	0.482780	0.494021	0.424324
	C5642	C	0.391641	0.639112	0.077504
	C5643	C	0.444427	0.490047	0.079249
	C5644	C	0.418202	0.492636	0.174195
	C5645	C	0.480759	0.554632	0.173563
	C5646	C	0.380366	0.477671	0.327830
	C5647	C	0.442887	0.540249	0.328787
	C5648	C	0.380391	0.477298	0.172739
	C5649	C	0.442869	0.540303	0.173673
	C5650	C	0.418225	0.492287	0.329098
	C5651	C	0.480731	0.554623	0.328806
	C5652	C	0.394982	0.628656	0.499948
	C5653	C	0.448912	0.489258	0.001610
	C5654	C	0.417500	0.559198	0.501078
	C5655	C	0.478362	0.496400	0.001885
	C5656	C	0.413799	0.491415	0.251525
	C5657	C	0.476319	0.553517	0.250987
	C5658	C	0.384458	0.483056	0.250268
	C5659	C	0.446973	0.545933	0.251117
	C5660	C	0.400642	0.610916	0.500515
	C5661	C	0.456371	0.491023	0.001809
	C5662	C	0.411813	0.576822	0.500732
	C5663	C	0.470881	0.496125	0.001735
	C5664	C	0.406320	0.490936	0.251464
	C5665	C	0.468844	0.553250	0.250953
	C5666	C	0.391783	0.487979	0.250661
	C5667	C	0.454272	0.550682	0.250925
	C5668	C	0.403664	0.602721	0.473600
	C5669	C	0.460096	0.493097	0.417885
	C5670	C	0.408948	0.585275	-0.008746
	C5671	C	0.467154	0.494811	-0.082482
	C5672	C	0.409087	0.586168	0.473741
	C5673	C	0.467127	0.495548	0.417978
	C5674	C	0.403531	0.601865	-0.008974
	C5675	C	0.460111	0.492350	-0.082315
	C5676	C	0.402578	0.490885	0.168621
	C5677	C	0.465101	0.552965	0.168331
	C5678	C	0.395499	0.489106	0.333786
	C5679	C	0.458004	0.552217	0.333452
	C5680	C	0.395525	0.489444	0.168122
	C5681	C	0.458019	0.551678	0.168299
	C5682	C	0.402562	0.490524	0.334029
	C5683	C	0.465082	0.553502	0.333481
	N5684	N	0.386901	0.655353	0.451831
	N5685	N	0.437855	0.492676	0.452581
	N5686	N	0.425627	0.532608	0.049395
	N5687	N	0.489261	0.488836	0.050722
	N5688	N	0.425698	0.532799	0.453913
	N5689	N	0.489266	0.488839	0.453089
	N5690	N	0.386827	0.654936	0.047794
	N5691	N	0.437829	0.492613	0.050223
	N5692	N	0.424743	0.494748	0.202957
	N5693	N	0.487289	0.556771	0.202716
	N5694	N	0.374457	0.468405	0.298703
	N5695	N	0.436982	0.531055	0.299623
	N5696	N	0.374459	0.468268	0.202030
	N5697	N	0.436964	0.531172	0.202968
	N5698	N	0.424754	0.494575	0.300421
	N5699	N	0.487256	0.556760	0.299987
	H5700	H	0.392624	0.636341	0.849119
	H5701	H	0.445708	0.489805	0.848557
	H5702	H	0.419829	0.551007	0.653196
	H5703	H	0.481662	0.495349	0.654431
	H5704	H	0.419919	0.551435	0.851205
	H5705	H	0.481611	0.495291	0.849594
	H5706	H	0.392418	0.636094	0.650624
	H5707	H	0.445655	0.489655	0.654593
	H5708	H	0.417028	0.491450	0.598563
	H5709	H	0.479519	0.554584	0.598627
	H5710	H	0.381378	0.479825	0.903153
	H5711	H	0.443816	0.542814	0.903549
	H5712	H	0.381570	0.478903	0.598647
	H5713	H	0.443904	0.542211	0.599006
	H5714	H	0.416938	0.492662	0.902750
	H5715	H	0.479444	0.553873	0.902246
	H5716	H	0.401435	0.608915	1.019115
	H5717	H	0.457420	0.492242	1.152884
	H5718	H	0.410685	0.578166	0.549256
	H5719	H	0.469773	0.496652	0.652170
	H5720	H	0.410989	0.579506	1.019630
	H5721	H	0.469780	0.496193	1.152539
	H5722	H	0.401167	0.607409	0.548783
	H5723	H	0.457429	0.492649	0.652256
	H5724	H	0.405272	0.490669	0.899327
	H5725	H	0.467727	0.553115	0.898934
	H5726	H	0.392790	0.489461	0.602752
	H5727	H	0.455220	0.552166	0.603213
	H5728	H	0.392874	0.488091	0.899385
	H5729	H	0.455328	0.550868	0.899402
	H5730	H	0.405202	0.492094	0.602397
	H5731	H	0.467634	0.554682	0.602442
	Co5732	Co	0.493808	0.572857	0.626085
	Co5733	Co	0.431271	0.510514	0.626593
	Co5734	Co	0.368807	0.447977	0.875351
	Co5735	Co	0.431307	0.510637	0.875905
	C5736	C	0.391710	0.639206	0.922695
	C5737	C	0.444453	0.490455	0.923551
	C5738	C	0.420725	0.548281	0.578758
	C5739	C	0.482792	0.493846	0.579548
	C5740	C	0.420797	0.548455	0.924470
	C5741	C	0.482797	0.493915	0.924283
	C5742	C	0.391621	0.639229	0.576857
	C5743	C	0.444442	0.490381	0.579367
	C5744	C	0.418238	0.492092	0.673440
	C5745	C	0.480709	0.554897	0.673286
	C5746	C	0.380362	0.477804	0.828377
	C5747	C	0.442808	0.540721	0.828823
	C5748	C	0.380429	0.477415	0.673424
	C5749	C	0.442864	0.540325	0.673698
	C5750	C	0.418199	0.492671	0.828600
	C5751	C	0.480674	0.554562	0.827863
	C5752	C	0.394983	0.628387	1.000217
	C5753	C	0.448887	0.489397	0.501822
	C5754	C	0.417485	0.559086	1.001655
	C5755	C	0.478398	0.496742	0.501932
	C5756	C	0.413808	0.491329	0.750777
	C5757	C	0.476269	0.553596	0.750428
	C5758	C	0.384491	0.483097	0.750905
	C5759	C	0.446905	0.546205	0.751320
	C5760	C	0.400671	0.610849	1.000723
	C5761	C	0.456365	0.491479	0.501733
	C5762	C	0.411811	0.576719	1.001586
	C5763	C	0.470874	0.496734	0.501842
	C5764	C	0.406339	0.490797	0.750737
	C5765	C	0.468786	0.553329	0.750626
	C5766	C	0.391796	0.488026	0.750917
	C5767	C	0.454232	0.550880	0.751345
	C5768	C	0.403522	0.602307	1.011035
	C5769	C	0.460077	0.492767	1.085807
	C5770	C	0.408769	0.585021	0.528137
	C5771	C	0.467123	0.495725	0.585616
	C5772	C	0.408940	0.585699	1.011567
	C5773	C	0.467133	0.495180	1.085704
	C5774	C	0.403359	0.601590	0.527910
	C5775	C	0.460091	0.493330	0.585503
	C5776	C	0.402609	0.490269	0.833480
	C5777	C	0.465058	0.552909	0.833510
	C5778	C	0.395496	0.489680	0.668052
	C5779	C	0.457944	0.552363	0.668458
	C5780	C	0.395545	0.488886	0.833685
	C5781	C	0.457995	0.551639	0.833961
	C5782	C	0.402559	0.491090	0.668170
	C5783	C	0.465007	0.553641	0.668252
	N5784	N	0.386862	0.654979	0.952022
	N5785	N	0.437856	0.492791	0.952200
	N5786	N	0.425608	0.532579	0.549661
	N5787	N	0.489281	0.488736	0.550314
	N5788	N	0.425626	0.532647	0.953749
	N5789	N	0.489269	0.489050	0.953305
	N5790	N	0.386834	0.655120	0.547478
	N5791	N	0.437856	0.492773	0.550734
	N5792	N	0.424771	0.494420	0.702568
	N5793	N	0.487248	0.556859	0.702012
	N5794	N	0.374456	0.468692	0.799087
	N5795	N	0.436892	0.531562	0.799727
	N5796	N	0.374509	0.468434	0.702447
	N5797	N	0.436925	0.531318	0.702824
	N5798	N	0.424752	0.494727	0.799938
	N5799	N	0.487219	0.556697	0.799542
	H5800	H	0.393440	0.755705	0.347205
	H5801	H	0.454933	0.698413	0.351445
	H5802	H	0.429211	0.760699	0.154263
	H5803	H	0.482466	0.614230	0.151925
	H5804	H	0.429427	0.761042	0.349486
	H5805	H	0.482243	0.613354	0.349875
	H5806	H	0.393328	0.754878	0.151925
	H5807	H	0.455203	0.699190	0.152638
	H5808	H	0.431139	0.707778	0.099048
	H5809	H	0.493529	0.770507	0.098309
	H5810	H	0.395437	0.696380	0.401280
	H5811	H	0.458115	0.757655	0.403675
	H5812	H	0.395525	0.695389	0.098515
	H5813	H	0.457867	0.759135	0.101321
	H5814	H	0.430935	0.708425	0.403618
	H5815	H	0.493598	0.770226	0.401609
	H5816	H	0.405290	0.753755	0.349113
	H5817	H	0.464868	0.674329	0.576274
	H5818	H	0.417570	0.757615	-0.149955
	H5819	H	0.473089	0.640398	0.044395
	H5820	H	0.417608	0.757667	0.349781
	H5821	H	0.474455	0.645363	0.575802
	H5822	H	0.405245	0.753677	-0.150883
	H5823	H	0.463572	0.669885	0.044361
	H5824	H	0.419632	0.698532	0.399093
	H5825	H	0.482174	0.761949	0.398869
	H5826	H	0.407233	0.697197	0.101761
	H5827	H	0.469691	0.758294	0.102410
	H5828	H	0.407248	0.695932	0.398757
	H5829	H	0.469772	0.759596	0.399959
	H5830	H	0.419654	0.699445	0.101989
	H5831	H	0.482103	0.760596	0.101766
	Co5832	Co	0.506226	0.802047	0.124730
	Co5833	Co	0.443718	0.739731	0.128135
	Co5834	Co	0.381219	0.677361	0.374129
	Co5835	Co	0.443709	0.739513	0.377333
	C5836	C	0.392206	0.756732	0.421475
	C5837	C	0.454144	0.701495	0.424875
	C5838	C	0.430504	0.759870	0.079600
	C5839	C	0.483299	0.610985	0.078409
	C5840	C	0.430561	0.760078	0.424316
	C5841	C	0.483191	0.610513	0.423830
	C5842	C	0.392151	0.756323	0.077114
	C5843	C	0.454244	0.701996	0.079232
	C5844	C	0.432151	0.709805	0.173999
	C5845	C	0.494581	0.772545	0.172365
	C5846	C	0.394236	0.695671	0.327004
	C5847	C	0.456800	0.757609	0.329579
	C5848	C	0.394288	0.695147	0.172304
	C5849	C	0.456710	0.758297	0.174997
	C5850	C	0.432043	0.710088	0.329137
	C5851	C	0.494607	0.772255	0.327299
	C5852	C	0.396582	0.753927	0.499253
	C5853	C	0.457516	0.691105	0.001859
	C5854	C	0.426084	0.761042	0.501713
	C5855	C	0.479938	0.621531	0.001193
	C5856	C	0.428022	0.704432	0.251037
	C5857	C	0.490500	0.766783	0.249738
	C5858	C	0.398668	0.696494	0.249831
	C5859	C	0.461164	0.759102	0.251896
	C5860	C	0.404097	0.754077	0.499749
	C5861	C	0.463183	0.673465	0.001965
	C5862	C	0.418622	0.759169	0.500824
	C5863	C	0.474277	0.639195	0.001829
	C5864	C	0.420704	0.699710	0.250481
	C5865	C	0.483186	0.762052	0.250185
	C5866	C	0.406173	0.696964	0.250136
	C5867	C	0.468650	0.759551	0.251218
	C5868	C	0.407891	0.754989	0.416045
	C5869	C	0.466552	0.666541	0.543471
	C5870	C	0.414910	0.757097	-0.083107
	C5871	C	0.471214	0.647350	0.025520
	C5872	C	0.414930	0.757345	0.416491
	C5873	C	0.471968	0.649982	0.543307
	C5874	C	0.407858	0.754718	-0.083745
	C5875	C	0.465807	0.663991	0.025723
	C5876	C	0.416969	0.698182	0.333569
	C5877	C	0.479485	0.761185	0.333421
	C5878	C	0.409924	0.697461	0.167432
	C5879	C	0.472375	0.759263	0.167993
	C5880	C	0.409906	0.696901	0.333248
	C5881	C	0.472421	0.760005	0.333992
	C5882	C	0.416976	0.698879	0.167495
	C5883	C	0.479440	0.760527	0.167500
	N5884	N	0.385708	0.761602	0.450196
	N5885	N	0.449350	0.717444	0.454472
	N5886	N	0.437119	0.757400	0.051380
	N5887	N	0.488091	0.594983	0.049133
	N5888	N	0.437149	0.757435	0.453334
	N5889	N	0.488039	0.594683	0.453138
	N5890	N	0.385698	0.761394	0.047682
	N5891	N	0.449393	0.717727	0.050176
	N5892	N	0.438077	0.718887	0.203824
	N5893	N	0.500503	0.781635	0.201651
	N5894	N	0.387720	0.693340	0.297821
	N5895	N	0.450240	0.755580	0.301453
	N5896	N	0.387743	0.693222	0.200661
	N5897	N	0.450188	0.756050	0.204107
	N5898	N	0.438012	0.719004	0.300438
	N5899	N	0.500518	0.781475	0.298231
	H5900	H	0.393411	0.755073	0.847368
	H5901	H	0.454979	0.698644	0.850696
	H5902	H	0.429305	0.760479	0.654378
	H5903	H	0.482543	0.614189	0.652798
	H5904	H	0.429324	0.761016	0.849449
	H5905	H	0.482286	0.613494	0.850056
	H5906	H	0.393310	0.754893	0.650887
	H5907	H	0.455152	0.699130	0.653354
	H5908	H	0.431209	0.707898	0.600229
	H5909	H	0.493451	0.771134	0.598759
	H5910	H	0.395449	0.696252	0.900489
	H5911	H	0.458061	0.757779	0.903255
	H5912	H	0.395498	0.695615	0.598215
	H5913	H	0.458010	0.758740	0.600153
	H5914	H	0.430988	0.708584	0.903048
	H5915	H	0.493662	0.770116	0.902602
	H5916	H	0.405108	0.754288	1.150625
	H5917	H	0.464332	0.672144	0.960277
	H5918	H	0.417453	0.758498	0.651315
	H5919	H	0.472613	0.638267	0.427715
	H5920	H	0.417445	0.758339	1.151878
	H5921	H	0.473865	0.642907	0.960022
	H5922	H	0.405118	0.754727	0.650472
	H5923	H	0.463068	0.667642	0.426952
	H5924	H	0.419612	0.698641	0.898782
	H5925	H	0.482126	0.761424	0.603107
	H5926	H	0.407294	0.697077	0.601823
	H5927	H	0.469840	0.758797	0.900409
	H5928	H	0.407199	0.696029	0.898075
	H5929	H	0.469728	0.758876	0.603322
	H5930	H	0.419692	0.699941	0.602671
	H5931	H	0.482212	0.761232	0.899610
	Co5932	Co	0.506258	0.802174	0.624981
	Co5933	Co	0.443753	0.739603	0.627651
	Co5934	Co	0.381242	0.677105	0.873819
	Co5935	Co	0.443673	0.739734	0.877345
	C5936	C	0.392193	0.756448	0.921828
	C5937	C	0.454146	0.701699	0.924884
	C5938	C	0.430510	0.759891	0.579685
	C5939	C	0.483346	0.610925	0.578739
	C5940	C	0.430561	0.759939	0.924283
	C5941	C	0.483203	0.610611	0.923872
	C5942	C	0.392162	0.756432	0.576769
	C5943	C	0.454256	0.701835	0.579320
	C5944	C	0.432179	0.710008	0.674222
	C5945	C	0.494586	0.772787	0.672965
	C5946	C	0.394258	0.695655	0.826793
	C5947	C	0.456791	0.757571	0.830006
	C5948	C	0.394290	0.695282	0.672310
	C5949	C	0.456751	0.758093	0.674872
	C5950	C	0.432089	0.710286	0.828900
	C5951	C	0.494682	0.772245	0.828221
	C5952	C	0.396593	0.753618	0.999665
	C5953	C	0.457494	0.690925	0.502002
	C5954	C	0.426064	0.760900	1.001586
	C5955	C	0.479959	0.621508	0.501415
	C5956	C	0.428025	0.704612	0.751376
	C5957	C	0.490520	0.766857	0.750823
	C5958	C	0.398689	0.696593	0.749618
	C5959	C	0.461195	0.758961	0.752154
	C5960	C	0.404083	0.753805	0.999875
	C5961	C	0.463180	0.673312	0.501802
	C5962	C	0.418606	0.758929	1.000916
	C5963	C	0.474310	0.639262	0.501747
	C5964	C	0.420717	0.699874	0.750913
	C5965	C	0.483234	0.762006	0.751312
	C5966	C	0.406177	0.697070	0.749878
	C5967	C	0.468665	0.759359	0.751849
	C5968	C	0.407801	0.755042	1.084012
	C5969	C	0.466234	0.665317	0.978580
	C5970	C	0.414838	0.757665	0.584326
	C5971	C	0.470973	0.646134	0.459928
	C5972	C	0.414841	0.757440	1.084440
	C5973	C	0.471631	0.648661	0.978143
	C5974	C	0.407801	0.755313	0.583962
	C5975	C	0.465545	0.662638	0.459705
	C5976	C	0.416963	0.698394	0.833332
	C5977	C	0.479482	0.760840	0.668778
	C5978	C	0.409954	0.697558	0.667330
	C5979	C	0.472454	0.759426	0.834469
	C5980	C	0.409897	0.696972	0.833008
	C5981	C	0.472402	0.759508	0.668937
	C5982	C	0.417024	0.698941	0.667889
	C5983	C	0.479532	0.760786	0.834120
	N5984	N	0.385724	0.761400	0.950428
	N5985	N	0.449327	0.717534	0.954479
	N5986	N	0.437116	0.757295	0.551524
	N5987	N	0.488139	0.594995	0.549108
	N5988	N	0.437158	0.757496	0.953509
	N5989	N	0.488037	0.594762	0.953268
	N5990	N	0.385680	0.761352	0.547688
	N5991	N	0.449416	0.717629	0.550167
	N5992	N	0.438096	0.719009	0.703778
	N5993	N	0.500518	0.781702	0.701911
	N5994	N	0.387737	0.693302	0.798138
	N5995	N	0.450261	0.755534	0.801355
	N5996	N	0.387758	0.693107	0.700741
	N5997	N	0.450226	0.755820	0.703824
	N5998	N	0.438036	0.719156	0.800466
	N5999	N	0.500571	0.781386	0.798413
	H6000	H	0.391762	0.868630	0.347271
	H6001	H	0.455931	0.817496	0.348987
	H6002	H	0.427781	0.868304	0.154749
	H6003	H	0.491874	0.823102	0.152765
	H6004	H	0.427932	0.869090	0.349160
	H6005	H	0.491845	0.822832	0.348048
	H6006	H	0.391655	0.868427	0.151468
	H6007	H	0.455969	0.818101	0.152973
	H6008	H	0.428450	0.816206	0.098503
	H6009	H	0.490899	0.878951	0.097612
	H6010	H	0.392412	0.808140	0.401292
	H6011	H	0.455108	0.869776	0.403625
	H6012	H	0.392564	0.807801	0.097648
	H6013	H	0.454904	0.871044	0.099341
	H6014	H	0.428371	0.816393	0.403540
	H6015	H	0.490933	0.878463	0.401807
	H6016	H	0.403547	0.867990	0.651012
	H6017	H	0.467781	0.816237	0.350599
	H6018	H	0.415867	0.870191	0.152943
	H6019	H	0.480030	0.819805	0.151871
	H6020	H	0.415922	0.870148	0.652486
	H6021	H	0.480090	0.820370	0.350048
	H6022	H	0.403497	0.867747	0.152233
	H6023	H	0.467742	0.815843	0.151511
	H6024	H	0.416639	0.813411	0.098740
	H6025	H	0.479160	0.875773	0.401278
	H6026	H	0.404222	0.811507	0.401421
	H6027	H	0.466727	0.874067	0.099058
	H6028	H	0.404240	0.812490	0.098663
	H6029	H	0.466764	0.874882	0.401368
	H6030	H	0.416608	0.812599	0.401610
	H6031	H	0.479124	0.875264	0.098760
	Co6032	Co	0.504302	0.905305	0.124516
	Co6033	Co	0.441843	0.842938	0.126877
	Co6034	Co	0.379261	0.780306	0.373433
	Co6035	Co	0.441814	0.842668	0.377202
	C6036	C	0.390603	0.870125	0.421945
	C6037	C	0.454751	0.818913	0.423662
	C6038	C	0.428928	0.867115	0.079747
	C6039	C	0.493058	0.822287	0.077838
	C6040	C	0.429035	0.867355	0.424389
	C6041	C	0.493091	0.822289	0.422162
	C6042	C	0.390512	0.869981	0.077079
	C6043	C	0.454762	0.819075	0.078699
	C6044	C	0.429583	0.817731	0.173130
	C6045	C	0.492047	0.880383	0.172007
	C6046	C	0.391326	0.806572	0.326876
	C6047	C	0.453923	0.868520	0.329204
	C6048	C	0.391412	0.806351	0.171706
	C6049	C	0.453829	0.869103	0.174044
	C6050	C	0.429526	0.817798	0.328594
	C6051	C	0.492069	0.880138	0.327392
	C6052	C	0.394999	0.867602	0.499602
	C6053	C	0.459115	0.816076	0.000800
	C6054	C	0.424596	0.870000	0.501613
	C6055	C	0.488600	0.823147	0.000363
	C6056	C	0.425225	0.814538	0.250571
	C6057	C	0.487714	0.876990	0.249756
	C6058	C	0.395648	0.810125	0.249572
	C6059	C	0.458195	0.872452	0.251227
	C6060	C	0.402509	0.867476	0.499608
	C6061	C	0.466622	0.816195	0.000431
	C6062	C	0.417099	0.870363	0.500827
	C6063	C	0.481149	0.821247	0.000465
	C6064	C	0.417755	0.812905	0.250203
	C6065	C	0.480280	0.875335	0.249994
	C6066	C	0.403112	0.812246	0.249996
	C6067	C	0.465631	0.874510	0.250331
	C6068	C	0.406250	0.868319	0.584093
	C6069	C	0.470424	0.817205	0.417253
	C6070	C	0.413239	0.869579	0.085718
	C6071	C	0.477414	0.819314	0.084521
	C6072	C	0.413314	0.869689	0.584776
	C6073	C	0.477449	0.819672	0.416933
	C6074	C	0.406174	0.868165	0.085292
	C6075	C	0.470382	0.816923	0.084516
	C6076	C	0.413997	0.812975	0.165961
	C6077	C	0.476529	0.875378	0.334099
	C6078	C	0.406876	0.812073	0.334334
	C6079	C	0.469388	0.874477	0.166080
	C6080	C	0.406907	0.812662	0.165886
	C6081	C	0.469418	0.874990	0.334286
	C6082	C	0.413967	0.812546	0.334156
	C6083	C	0.476495	0.875020	0.166100
	N6084	N	0.384104	0.874929	0.450623
	N6085	N	0.448247	0.823662	0.452855
	N6086	N	0.435397	0.861934	0.050889
	N6087	N	0.499657	0.819819	0.049239
	N6088	N	0.435471	0.861878	0.453700
	N6089	N	0.499709	0.819953	0.450661
	N6090	N	0.384054	0.875136	0.047790
	N6091	N	0.448274	0.824079	0.050188
	N6092	N	0.435894	0.823475	0.202544
	N6093	N	0.498355	0.885993	0.200840
	N6094	N	0.385071	0.800173	0.297578
	N6095	N	0.447672	0.862279	0.300611
	N6096	N	0.385148	0.799979	0.200517
	N6097	N	0.447606	0.862659	0.203366
	N6098	N	0.435833	0.823651	0.299993
	N6099	N	0.498368	0.885835	0.298451
	H6100	H	0.391773	0.868611	0.847656
	H6101	H	0.455780	0.816798	0.849035
	H6102	H	0.427761	0.868156	0.653862
	H6103	H	0.491966	0.823902	0.652218
	H6104	H	0.427897	0.869497	0.849941
	H6105	H	0.491836	0.822954	0.847766
	H6106	H	0.391751	0.868748	0.651652
	H6107	H	0.455951	0.817259	0.653758
	H6108	H	0.428496	0.815883	0.599270
	H6109	H	0.490918	0.878925	0.597536
	H6110	H	0.392392	0.808095	0.901431
	H6111	H	0.455090	0.870280	0.903707
	H6112	H	0.392561	0.807841	0.596982
	H6113	H	0.455051	0.870068	0.599299
	H6114	H	0.428339	0.816978	0.904077
	H6115	H	0.491015	0.878732	0.902714
	H6116	H	0.403631	0.867246	0.849194
	H6117	H	0.467719	0.816718	0.849360
	H6118	H	0.416024	0.869764	0.349044
	H6119	H	0.480158	0.820663	0.651115
	H6120	H	0.415997	0.869660	0.850431
	H6121	H	0.480003	0.820677	0.849132
	H6122	H	0.403636	0.867780	0.348079
	H6123	H	0.467808	0.816609	0.651783
	H6124	H	0.416593	0.812618	0.901914
	H6125	H	0.479179	0.875104	0.599200
	H6126	H	0.404277	0.812536	0.599121
	H6127	H	0.466808	0.874623	0.902474
	H6128	H	0.404208	0.811549	0.900847
	H6129	H	0.466762	0.874196	0.599797
	H6130	H	0.416706	0.813721	0.600267
	H6131	H	0.479221	0.875468	0.901890
	Co6132	Co	0.504319	0.905400	0.624503
	Co6133	Co	0.441850	0.842487	0.626922
	Co6134	Co	0.379283	0.780234	0.873755
	Co6135	Co	0.441783	0.842921	0.877392
	C6136	C	0.390584	0.870207	0.922051
	C6137	C	0.454669	0.818611	0.923625
	C6138	C	0.428947	0.866940	0.579459
	C6139	C	0.493146	0.822767	0.577521
	C6140	C	0.428980	0.867653	0.924340
	C6141	C	0.493040	0.822191	0.922625
	C6142	C	0.390592	0.870096	0.577126
	C6143	C	0.454749	0.818641	0.579098
	C6144	C	0.429594	0.817507	0.674119
	C6145	C	0.492067	0.880250	0.672448
	C6146	C	0.391338	0.806521	0.826725
	C6147	C	0.453953	0.868716	0.829183
	C6148	C	0.391430	0.806260	0.671435
	C6149	C	0.453935	0.868602	0.673778
	C6150	C	0.429507	0.818153	0.829592
	C6151	C	0.492109	0.880124	0.827743
	C6152	C	0.394946	0.867310	0.999927
	C6153	C	0.459154	0.816164	0.501361
	C6154	C	0.424543	0.870257	1.002014
	C6155	C	0.488684	0.823459	0.500183
	C6156	C	0.425246	0.814696	0.751494
	C6157	C	0.487783	0.876868	0.750171
	C6158	C	0.395658	0.810000	0.749445
	C6159	C	0.458215	0.872382	0.751316
	C6160	C	0.402467	0.867226	1.000624
	C6161	C	0.466678	0.816298	0.501271
	C6162	C	0.417035	0.870370	1.001706
	C6163	C	0.481203	0.821427	0.500577
	C6164	C	0.417756	0.812973	0.750859
	C6165	C	0.480308	0.875125	0.750470
	C6166	C	0.403123	0.812099	0.749855
	C6167	C	0.465680	0.874473	0.751130
	C6168	C	0.406253	0.867862	0.916552
	C6169	C	0.470360	0.817553	0.916188
	C6170	C	0.413360	0.869532	0.416111
	C6171	C	0.477485	0.819855	0.584579
	C6172	C	0.413317	0.869338	0.917152
	C6173	C	0.477395	0.819912	0.916316
	C6174	C	0.406292	0.868230	0.415292
	C6175	C	0.470447	0.817436	0.584885
	C6176	C	0.413953	0.812503	0.834671
	C6177	C	0.476529	0.874909	0.666327
	C6178	C	0.406922	0.812717	0.666247
	C6179	C	0.469461	0.874815	0.835251
	C6180	C	0.406877	0.811943	0.834028
	C6181	C	0.469441	0.874557	0.666695
	C6182	C	0.414001	0.813229	0.666737
	C6183	C	0.476544	0.875197	0.834919
	N6184	N	0.384104	0.875323	0.950477
	N6185	N	0.448204	0.823762	0.952903
	N6186	N	0.435415	0.861679	0.551211
	N6187	N	0.499743	0.820183	0.548494
	N6188	N	0.435449	0.862315	0.953391
	N6189	N	0.499643	0.819846	0.950817
	N6190	N	0.384108	0.874973	0.548056
	N6191	N	0.448257	0.823599	0.550212
	N6192	N	0.435913	0.823329	0.703554
	N6193	N	0.498384	0.886082	0.701180
	N6194	N	0.385097	0.800014	0.797156
	N6195	N	0.447687	0.862292	0.800410
	N6196	N	0.385144	0.799937	0.699776
	N6197	N	0.447677	0.862235	0.703109
	N6198	N	0.435856	0.823646	0.800909
	N6199	N	0.498410	0.885953	0.798580
	H6200	H	0.390017	0.980873	0.347840
	H6201	H	0.454207	0.931113	0.349514
	H6202	H	0.425944	0.980729	0.154418
	H6203	H	0.490323	0.931314	0.151855
	H6204	H	0.426144	0.981644	0.349698
	H6205	H	0.490300	0.931061	0.347930
	H6206	H	0.389843	0.980838	0.151664
	H6207	H	0.454138	0.931054	0.153496
	H6208	H	0.426952	0.928256	0.099849
	H6209	H	0.489377	0.991234	0.097889
	H6210	H	0.390893	0.921043	0.401971
	H6211	H	0.453433	0.983818	0.402853
	H6212	H	0.391027	0.920995	0.097284
	H6213	H	0.453397	0.983390	0.098335
	H6214	H	0.426855	0.929459	0.404361
	H6215	H	0.489411	0.991538	0.402989
	H6216	H	0.401914	0.979369	0.348910
	H6217	H	0.466062	0.930243	0.348683
	H6218	H	0.414103	0.983038	0.152810
	H6219	H	0.478427	0.932340	-0.151253
	H6220	H	0.414263	0.981847	0.349629
	H6221	H	0.478452	0.932564	0.348636
	H6222	H	0.401733	0.980780	0.152141
	H6223	H	0.466055	0.930051	-0.150590
	H6224	H	0.415225	0.925661	0.100086
	H6225	H	0.477556	0.987935	0.401839
	H6226	H	0.402677	0.924459	0.402083
	H6227	H	0.465156	0.986774	0.099048
	H6228	H	0.402809	0.925033	0.098841
	H6229	H	0.465174	0.987505	0.401821
	H6230	H	0.415079	0.924878	0.403317
	H6231	H	0.477599	0.987383	0.099216
	Co6232	Co	0.502658	1.018717	0.125118
	Co6233	Co	0.440105	0.956114	0.126775
	Co6234	Co	0.377692	0.893692	0.373582
	Co6235	Co	0.440160	0.956459	0.377281
	C6236	C	0.388829	0.982263	0.422200
	C6237	C	0.453039	0.932523	0.423711
	C6238	C	0.427128	0.979668	0.079761
	C6239	C	0.491480	0.929760	0.077553
	C6240	C	0.427269	0.980280	0.424073
	C6241	C	0.491458	0.929575	0.422129
	C6242	C	0.388717	0.982405	0.077044
	C6243	C	0.453038	0.932436	0.078744
	C6244	C	0.428075	0.930120	0.174725
	C6245	C	0.490488	0.992990	0.172963
	C6246	C	0.389817	0.919539	0.326949
	C6247	C	0.452280	0.982192	0.328711
	C6248	C	0.389867	0.919509	0.171515
	C6249	C	0.452250	0.982008	0.173310
	C6250	C	0.428025	0.930663	0.329802
	C6251	C	0.490510	0.992980	0.328356
	C6252	C	0.393221	0.979515	0.500140
	C6253	C	0.457451	0.929865	0.001141
	C6254	C	0.422824	0.982573	0.501361
	C6255	C	0.487065	0.932385	-0.000131
	C6256	C	0.423730	0.926921	0.252085
	C6257	C	0.486193	0.989434	0.250701
	C6258	C	0.394176	0.922956	0.249479
	C6259	C	0.456566	0.985571	0.250757
	C6260	C	0.400730	0.979388	0.500715
	C6261	C	0.464943	0.929627	0.001015
	C6262	C	0.415330	0.982610	0.501155
	C6263	C	0.479545	0.932503	0.000166
	C6264	C	0.416277	0.925138	0.251579
	C6265	C	0.478715	0.987546	0.250585
	C6266	C	0.401620	0.924764	0.250246
	C6267	C	0.464036	0.987308	0.250435
	C6268	C	0.404518	0.980057	0.416518
	C6269	C	0.468726	0.930633	0.415760
	C6270	C	0.411468	0.982236	0.085517
	C6271	C	0.475775	0.931836	-0.084045
	C6272	C	0.411587	0.981568	0.416743
	C6273	C	0.475798	0.932082	0.415853
	C6274	C	0.404391	0.980869	0.085014
	C6275	C	0.468703	0.930400	-0.083440
	C6276	C	0.412537	0.925181	0.166889
	C6277	C	0.474917	0.987698	0.334688
	C6278	C	0.405350	0.924705	0.334936
	C6279	C	0.467822	0.987032	0.166090
	C6280	C	0.405432	0.924910	0.166362
	C6281	C	0.467817	0.987578	0.334667
	C6282	C	0.412456	0.924952	0.335684
	C6283	C	0.474926	0.987337	0.166263
	N6284	N	0.382359	0.987488	0.450653
	N6285	N	0.446559	0.937436	0.453096
	N6286	N	0.433625	0.974987	0.051178
	N6287	N	0.497957	0.924562	0.048314
	N6288	N	0.433738	0.975204	0.453623
	N6289	N	0.497916	0.924286	0.451189
	N6290	N	0.382263	0.987434	0.047799
	N6291	N	0.446559	0.937462	0.050213
	N6292	N	0.434325	0.936443	0.203657
	N6293	N	0.496766	0.999258	0.201903
	N6294	N	0.383564	0.913389	0.297506
	N6295	N	0.446010	0.975909	0.300205
	N6296	N	0.383576	0.913517	0.200014
	N6297	N	0.445997	0.975761	0.202793
	N6298	N	0.434306	0.936713	0.301105
	N6299	N	0.496785	0.999179	0.299222
	H6300	H	0.390006	0.981188	0.847402
	H6301	H	0.454155	0.931296	0.849159
	H6302	H	0.426012	0.981044	0.653756
	H6303	H	0.490284	0.931201	0.651900
	H6304	H	0.426092	0.982080	0.849916
	H6305	H	0.490287	0.930987	0.847173
	H6306	H	0.389945	0.980994	0.651797
	H6307	H	0.454262	0.931075	0.653218
	H6308	H	0.427059	0.928486	0.599980
	H6309	H	0.489462	0.991494	0.598612
	H6310	H	0.390880	0.921417	0.901339
	H6311	H	0.453498	0.983659	0.903992
	H6312	H	0.391003	0.920906	0.597237
	H6313	H	0.453444	0.983367	0.599446
	H6314	H	0.426837	0.929698	0.904096
	H6315	H	0.489492	0.991506	0.902235
	H6316	H	0.401869	0.979463	0.848653
	H6317	H	0.466102	0.929939	1.152684
	H6318	H	0.414178	0.982678	0.652724
	H6319	H	0.478486	0.932336	0.651660
	H6320	H	0.414236	0.981672	0.849768
	H6321	H	0.478485	0.931852	1.151861
	H6322	H	0.401809	0.980516	0.652348
	H6323	H	0.466146	0.929923	0.651735
	H6324	H	0.415196	0.925546	0.599588
	H6325	H	0.477679	0.987679	0.598913
	H6326	H	0.402681	0.924507	0.901591
	H6327	H	0.465301	0.987235	0.902794
	H6328	H	0.402769	0.925213	0.598657
	H6329	H	0.465274	0.987040	0.599516
	H6330	H	0.415102	0.924907	0.902480
	H6331	H	0.477748	0.987531	0.902121
	Co6332	Co	0.502690	1.019101	0.625557
	Co6333	Co	0.440176	0.956281	0.627020
	Co6334	Co	0.377640	0.894074	0.873851
	Co6335	Co	0.440170	0.956883	0.877452
	C6336	C	0.388785	0.982516	0.922012
	C6337	C	0.453038	0.932687	0.923893
	C6338	C	0.427208	0.979820	0.579255
	C6339	C	0.491469	0.929820	0.577281
	C6340	C	0.427221	0.980573	0.924486
	C6341	C	0.491460	0.929631	0.922073
	C6342	C	0.388788	0.982427	0.577422
	C6343	C	0.453082	0.932422	0.578817
	C6344	C	0.428102	0.930217	0.674321
	C6345	C	0.490569	0.993077	0.672642
	C6346	C	0.389826	0.919815	0.826974
	C6347	C	0.452376	0.982264	0.828937
	C6348	C	0.389882	0.919590	0.672059
	C6349	C	0.452367	0.981967	0.673791
	C6350	C	0.427997	0.930730	0.829515
	C6351	C	0.490593	0.993008	0.827649
	C6352	C	0.393170	0.979686	0.999905
	C6353	C	0.457485	0.929799	0.500854
	C6354	C	0.422756	0.982628	1.001892
	C6355	C	0.487052	0.932521	0.499716
	C6356	C	0.423764	0.926926	0.751581
	C6357	C	0.486292	0.989568	0.750285
	C6358	C	0.394127	0.923177	0.749723
	C6359	C	0.456676	0.985492	0.751258
	C6360	C	0.400668	0.979597	1.000452
	C6361	C	0.464991	0.929594	0.500300
	C6362	C	0.415264	0.982630	1.001524
	C6363	C	0.479565	0.932776	0.500039
	C6364	C	0.416276	0.925029	0.750995
	C6365	C	0.478819	0.987640	0.750605
	C6366	C	0.401613	0.924946	0.750138
	C6367	C	0.464166	0.987335	0.751231
	C6368	C	0.404467	0.980156	0.916391
	C6369	C	0.468728	0.930338	1.085187
	C6370	C	0.411542	0.982029	0.585368
	C6371	C	0.475840	0.931861	0.584364
	C6372	C	0.411540	0.981601	0.916787
	C6373	C	0.475800	0.931642	1.084792
	C6374	C	0.404467	0.980630	0.585045
	C6375	C	0.468780	0.930386	0.584413
	C6376	C	0.412518	0.925171	0.666523
	C6377	C	0.475029	0.987607	0.666290
	C6378	C	0.405376	0.924758	0.834687
	C6379	C	0.467965	0.987280	0.835500
	C6380	C	0.405433	0.925061	0.665925
	C6381	C	0.467945	0.987242	0.666594
	C6382	C	0.412461	0.924873	0.835061
	C6383	C	0.475059	0.987518	0.835143
	N6384	N	0.382305	0.987551	0.950389
	N6385	N	0.446559	0.937662	0.952689
	N6386	N	0.433704	0.975038	0.550745
	N6387	N	0.497926	0.924501	0.548389
	N6388	N	0.433695	0.975473	0.953866
	N6389	N	0.497929	0.924485	0.950993
	N6390	N	0.382331	0.987582	0.548046
	N6391	N	0.446602	0.937478	0.550407
	N6392	N	0.434345	0.936745	0.703797
	N6393	N	0.496841	0.999380	0.701570
	N6394	N	0.383557	0.913539	0.797904
	N6395	N	0.446090	0.976094	0.800400
	N6396	N	0.383598	0.913367	0.700498
	N6397	N	0.446077	0.975909	0.703006
	N6398	N	0.434277	0.937103	0.801021
	N6399	N	0.496857	0.999332	0.798837
	H6400	H	0.514965	0.106017	0.349240
	H6401	H	0.579083	0.055554	0.350377
	H6402	H	0.551051	0.106661	0.155093
	H6403	H	0.615503	0.056941	0.151203
	H6404	H	0.551040	0.106729	0.349975
	H6405	H	0.615216	0.055448	0.346479
	H6406	H	0.514945	0.106025	0.153284
	H6407	H	0.579395	0.056352	0.154926
	H6408	H	0.551957	0.053787	0.100654
	H6409	H	0.614171	0.117301	0.096678
	H6410	H	0.515847	0.046292	0.402716
	H6411	H	0.578413	0.108179	0.404199
	H6412	H	0.515988	0.045861	0.098692
	H6413	H	0.578258	0.109204	0.101225
	H6414	H	0.551841	0.054116	0.404838
	H6415	H	0.614489	0.115473	0.400335
	H6416	H	0.526783	0.104947	0.350056
	H6417	H	0.590957	0.056384	0.350022
	H6418	H	0.539186	0.107423	0.153878
	H6419	H	0.603668	0.056880	0.151509
	H6420	H	0.539138	0.107325	0.349917
	H6421	H	0.603337	0.058697	0.349108
	H6422	H	0.526868	0.105178	0.153374
	H6423	H	0.591260	0.054556	0.152965
	H6424	H	0.540165	0.050462	0.100851
	H6425	H	0.602501	0.111795	0.098618
	H6426	H	0.527635	0.049899	0.403083
	H6427	H	0.590217	0.113198	0.403069
	H6428	H	0.527757	0.049744	0.099857
	H6429	H	0.590063	0.111399	0.099986
	H6430	H	0.540074	0.050271	0.403845
	H6431	H	0.602591	0.113744	0.401956
	Co6432	Co	0.627593	0.144068	0.122868
	Co6433	Co	0.565182	0.081218	0.128545
	Co6434	Co	0.502665	0.018760	0.375139
	Co6435	Co	0.565107	0.081326	0.378746
	C6436	C	0.513775	0.107428	0.423393
	C6437	C	0.577977	0.057132	0.425269
	C6438	C	0.552244	0.105192	0.080598
	C6439	C	0.616623	0.055077	0.076377
	C6440	C	0.552221	0.105158	0.424635
	C6441	C	0.616375	0.054554	0.421378
	C6442	C	0.513811	0.107399	0.078556
	C6443	C	0.578181	0.057631	0.080855
	C6444	C	0.553007	0.055477	0.175446
	C6445	C	0.615338	0.118555	0.170811
	C6446	C	0.514770	0.044604	0.328138
	C6447	C	0.577295	0.106824	0.330217
	C6448	C	0.514849	0.044431	0.173159
	C6449	C	0.577190	0.107376	0.175360
	C6450	C	0.552974	0.055538	0.330283
	C6451	C	0.615491	0.117513	0.325880
	C6452	C	0.518186	0.104686	0.501255
	C6453	C	0.582576	0.055010	0.002800
	C6454	C	0.547750	0.107611	0.502038
	C6455	C	0.612160	0.057657	-0.000749
	C6456	C	0.548689	0.051984	0.252811
	C6457	C	0.611121	0.114540	0.248840
	C6458	C	0.519106	0.048120	0.251004
	C6459	C	0.581539	0.110716	0.252301
	C6460	C	0.525674	0.104594	0.501663
	C6461	C	0.590068	0.054941	0.001765
	C6462	C	0.540268	0.107700	0.501834
	C6463	C	0.604655	0.057982	0.000162
	C6464	C	0.541222	0.050216	0.252480
	C6465	C	0.603670	0.112808	0.249893
	C6466	C	0.526567	0.049960	0.251613
	C6467	C	0.589012	0.112621	0.251458
	C6468	C	0.529433	0.105425	0.417448
	C6469	C	0.593648	0.056285	0.416782
	C6470	C	0.536563	0.107028	0.086406
	C6471	C	0.600967	0.056762	0.085030
	C6472	C	0.536513	0.106878	0.417493
	C6473	C	0.600712	0.057663	0.416042
	C6474	C	0.529489	0.105606	0.086089
	C6475	C	0.593887	0.055337	0.085649
	C6476	C	0.537472	0.050248	0.167966
	C6477	C	0.599862	0.112211	0.165949
	C6478	C	0.530318	0.050026	0.336065
	C6479	C	0.592838	0.113144	0.335406
	C6480	C	0.530375	0.050015	0.167500
	C6481	C	0.592771	0.112136	0.166731
	C6482	C	0.537413	0.050201	0.336520
	C6483	C	0.599929	0.113284	0.334626
	N6484	N	0.507306	0.112568	0.452389
	N6485	N	0.571512	0.062390	0.454894
	N6486	N	0.558725	0.100073	0.051853
	N6487	N	0.623045	0.049505	0.046944
	N6488	N	0.558693	0.100409	0.453886
	N6489	N	0.622850	0.049431	0.449835
	N6490	N	0.507335	0.112403	0.049584
	N6491	N	0.571700	0.062662	0.052238
	N6492	N	0.559276	0.061671	0.204599
	N6493	N	0.621641	0.124559	0.198825
	N6494	N	0.508529	0.038341	0.299054
	N6495	N	0.571008	0.100689	0.301941
	N6496	N	0.508580	0.038179	0.201507
	N6497	N	0.570942	0.101028	0.204663
	N6498	N	0.559252	0.061709	0.301894
	N6499	N	0.621747	0.123889	0.296340
	H6500	H	0.515025	0.106427	0.848423
	H6501	H	0.579269	0.056264	0.850851
	H6502	H	0.550934	0.106220	0.654926
	H6503	H	0.615408	0.057244	0.651426
	H6504	H	0.551128	0.106450	0.850749
	H6505	H	0.615276	0.055545	0.846646
	H6506	H	0.514910	0.106027	0.653611
	H6507	H	0.579359	0.057147	0.654975
	H6508	H	0.552040	0.054188	0.600592
	H6509	H	0.614324	0.117142	0.596185
	H6510	H	0.516101	0.045989	0.903176
	H6511	H	0.578647	0.108266	0.904780
	H6512	H	0.516065	0.046318	0.598369
	H6513	H	0.578419	0.109508	0.599951
	H6514	H	0.551968	0.053957	0.905069
	H6515	H	0.614626	0.115992	0.901339
	H6516	H	0.526921	0.105145	0.849673
	H6517	H	0.591097	0.056384	0.850165
	H6518	H	0.539083	0.107111	0.653976
	H6519	H	0.603544	0.056495	0.651235
	H6520	H	0.539284	0.107420	0.850648
	H6521	H	0.603433	0.058523	0.848903
	H6522	H	0.526775	0.104965	0.653481
	H6523	H	0.591149	0.054109	0.652401
	H6524	H	0.540275	0.050068	0.600816
	H6525	H	0.602604	0.112153	0.598957
	H6526	H	0.527704	0.050189	0.902521
	H6527	H	0.590331	0.113210	0.902954
	H6528	H	0.527855	0.049501	0.600192
	H6529	H	0.590211	0.111646	0.600454
	H6530	H	0.540177	0.050744	0.902983
	H6531	H	0.602720	0.113878	0.902101
	Co6532	Co	0.627683	0.144280	0.622682
	Co6533	Co	0.565175	0.081884	0.628254
	Co6534	Co	0.502744	0.018877	0.875474
	Co6535	Co	0.565247	0.081352	0.878524
	C6536	C	0.513847	0.107577	0.923348
	C6537	C	0.578130	0.057593	0.925419
	C6538	C	0.552169	0.105022	0.580072
	C6539	C	0.616465	0.055339	0.576749
	C6540	C	0.552287	0.105017	0.925069
	C6541	C	0.616505	0.054328	0.921100
	C6542	C	0.513745	0.107415	0.578882
	C6543	C	0.578106	0.057996	0.580537
	C6544	C	0.553114	0.055710	0.675220
	C6545	C	0.615512	0.118635	0.671173
	C6546	C	0.514926	0.044556	0.828579
	C6547	C	0.577460	0.106873	0.830057
	C6548	C	0.514924	0.044688	0.673124
	C6549	C	0.577338	0.107595	0.674805
	C6550	C	0.553096	0.055564	0.830445
	C6551	C	0.615662	0.117936	0.826293
	C6552	C	0.518252	0.104896	1.000862
	C6553	C	0.582434	0.054887	0.502569
	C6554	C	0.547843	0.107841	1.002417
	C6555	C	0.612039	0.057770	0.499419
	C6556	C	0.548813	0.052148	0.752829
	C6557	C	0.611267	0.114676	0.749086
	C6558	C	0.519198	0.048107	0.750994
	C6559	C	0.581719	0.110732	0.752188
	C6560	C	0.525739	0.104775	1.001325
	C6561	C	0.589951	0.054790	0.501398
	C6562	C	0.540330	0.107922	1.002140
	C6563	C	0.604533	0.057941	0.499975
	C6564	C	0.541337	0.050376	0.752295
	C6565	C	0.603826	0.112830	0.750364
	C6566	C	0.526683	0.049958	0.751459
	C6567	C	0.589163	0.112475	0.751650
	C6568	C	0.529529	0.105592	0.917238
	C6569	C	0.593766	0.056289	0.917038
	C6570	C	0.536503	0.106762	0.586198
	C6571	C	0.600826	0.056452	0.584478
	C6572	C	0.536599	0.107042	0.917570
	C6573	C	0.600840	0.057682	0.916285
	C6574	C	0.529424	0.105374	0.586187
	C6575	C	0.593764	0.055043	0.585190
	C6576	C	0.537587	0.050171	0.667853
	C6577	C	0.600007	0.112356	0.666648
	C6578	C	0.530421	0.050217	0.835717
	C6579	C	0.592962	0.113029	0.835543
	C6580	C	0.530505	0.049796	0.667555
	C6581	C	0.592895	0.112184	0.667256
	C6582	C	0.537509	0.050507	0.835904
	C6583	C	0.600064	0.113311	0.834944
	N6584	N	0.507359	0.112490	0.951936
	N6585	N	0.571652	0.062448	0.954599
	N6586	N	0.558663	0.100302	0.551540
	N6587	N	0.622909	0.049964	0.547468
	N6588	N	0.558751	0.100043	0.954641
	N6589	N	0.622970	0.048989	0.949529
	N6590	N	0.507289	0.112567	0.549637
	N6591	N	0.571605	0.062924	0.552158
	N6592	N	0.559379	0.061984	0.704272
	N6593	N	0.621784	0.124823	0.699210
	N6594	N	0.508648	0.038316	0.799333
	N6595	N	0.571169	0.100836	0.801489
	N6596	N	0.508637	0.038397	0.702203
	N6597	N	0.571089	0.101363	0.704285
	N6598	N	0.559362	0.061878	0.801725
	N6599	N	0.621875	0.124410	0.796818
	H6600	H	0.513223	0.219009	0.349109
	H6601	H	0.577337	0.167941	0.351518
	H6602	H	0.549289	0.219249	0.155151
	H6603	H	0.613595	0.169866	0.150061
	H6604	H	0.549285	0.218965	0.350915
	H6605	H	0.613410	0.167878	0.346695
	H6606	H	0.513187	0.218224	0.154183
	H6607	H	0.577576	0.169269	0.155870
	H6608	H	0.550099	0.166828	0.101174
	H6609	H	0.612417	0.230063	0.095740
	H6610	H	0.514092	0.158673	0.403121
	H6611	H	0.576792	0.220245	0.405229
	H6612	H	0.514145	0.158520	0.098609
	H6613	H	0.576471	0.221947	0.100958
	H6614	H	0.550098	0.166252	0.405435
	H6615	H	0.612766	0.227868	0.400692
	H6616	H	0.524929	0.217757	0.653776
	H6617	H	0.589154	0.168770	0.349884
	H6618	H	0.537435	0.220003	0.154227
	H6619	H	0.601769	0.169410	0.151094
	H6620	H	0.537306	0.220110	0.654828
	H6621	H	0.601534	0.170765	0.348583
	H6622	H	0.525067	0.217682	0.154593
	H6623	H	0.589412	0.166998	0.152937
	H6624	H	0.538397	0.162773	0.101298
	H6625	H	0.600727	0.224568	0.097853
	H6626	H	0.525876	0.162251	0.403909
	H6627	H	0.588547	0.225648	0.403237
	H6628	H	0.526013	0.161887	0.100025
	H6629	H	0.588314	0.224008	0.099485
	H6630	H	0.538283	0.162835	0.405060
	H6631	H	0.600929	0.226421	0.401194
	Co6632	Co	0.625815	0.256719	0.122530
	Co6633	Co	0.563345	0.194005	0.128843
	Co6634	Co	0.500869	0.131525	0.375654
	Co6635	Co	0.563357	0.193664	0.379134
	C6636	C	0.512006	0.219972	0.423722
	C6637	C	0.576217	0.169629	0.426084
	C6638	C	0.550442	0.217800	0.080636
	C6639	C	0.614752	0.168142	0.076121
	C6640	C	0.550416	0.217591	0.425447
	C6641	C	0.614638	0.167128	0.420987
	C6642	C	0.512024	0.219800	0.079347
	C6643	C	0.576327	0.170364	0.081206
	C6644	C	0.551201	0.168232	0.176029
	C6645	C	0.613626	0.231012	0.170478
	C6646	C	0.513025	0.157131	0.328290
	C6647	C	0.575572	0.219203	0.330972
	C6648	C	0.513063	0.156993	0.173179
	C6649	C	0.575414	0.219981	0.175870
	C6650	C	0.551214	0.167982	0.331059
	C6651	C	0.613789	0.229925	0.325770
	C6652	C	0.516401	0.217262	0.501513
	C6653	C	0.580694	0.167348	0.002920
	C6654	C	0.545977	0.220242	0.503008
	C6655	C	0.610256	0.170256	-0.001373
	C6656	C	0.546920	0.164600	0.253625
	C6657	C	0.609399	0.227031	0.248496
	C6658	C	0.517334	0.160438	0.251092
	C6659	C	0.579815	0.223137	0.252921
	C6660	C	0.523901	0.217208	0.502164
	C6661	C	0.588177	0.167174	0.001542
	C6662	C	0.538500	0.220423	0.503052
	C6663	C	0.602766	0.170284	-0.000588
	C6664	C	0.539446	0.162683	0.253414
	C6665	C	0.601932	0.225327	0.249332
	C6666	C	0.524817	0.162181	0.251921
	C6667	C	0.587285	0.225052	0.251555
	C6668	C	0.527622	0.218062	0.586910
	C6669	C	0.591869	0.168690	0.416801
	C6670	C	0.534785	0.219646	0.086939
	C6671	C	0.599090	0.169101	0.084098
	C6672	C	0.534701	0.219558	0.587172
	C6673	C	0.598938	0.170027	0.416096
	C6674	C	0.527720	0.218161	0.087030
	C6675	C	0.592012	0.167584	0.085416
	C6676	C	0.535713	0.162470	0.168506
	C6677	C	0.598093	0.224785	0.165454
	C6678	C	0.528565	0.162336	0.336789
	C6679	C	0.591115	0.225600	0.335270
	C6680	C	0.528645	0.162151	0.167626
	C6681	C	0.590998	0.224635	0.166593
	C6682	C	0.535650	0.162574	0.337493
	C6683	C	0.598211	0.225846	0.334183
	N6684	N	0.505534	0.224857	0.452357
	N6685	N	0.569756	0.174822	0.456089
	N6686	N	0.556942	0.212951	0.052104
	N6687	N	0.621219	0.163185	0.046743
	N6688	N	0.556886	0.212698	0.454236
	N6689	N	0.621130	0.162258	0.449240
	N6690	N	0.505545	0.224813	0.050243
	N6691	N	0.569825	0.175120	0.053026
	N6692	N	0.557491	0.174369	0.205058
	N6693	N	0.619934	0.237065	0.199014
	N6694	N	0.506736	0.151053	0.299286
	N6695	N	0.569297	0.213066	0.302779
	N6696	N	0.506753	0.150873	0.201844
	N6697	N	0.569189	0.213564	0.205344
	N6698	N	0.557473	0.174277	0.302235
	N6699	N	0.620046	0.236361	0.296320
	H6700	H	0.513306	0.219126	0.849942
	H6701	H	0.577317	0.167866	0.851033
	H6702	H	0.549210	0.218983	0.655256
	H6703	H	0.613646	0.170152	0.651360
	H6704	H	0.549381	0.219527	0.850345
	H6705	H	0.613407	0.168530	0.846307
	H6706	H	0.513114	0.218301	0.652994
	H6707	H	0.577624	0.169724	0.656153
	H6708	H	0.550057	0.166724	0.601064
	H6709	H	0.612418	0.229696	0.597233
	H6710	H	0.514095	0.158778	0.903000
	H6711	H	0.576815	0.219934	0.905371
	H6712	H	0.514195	0.158246	0.598950
	H6713	H	0.576428	0.221977	0.601625
	H6714	H	0.550016	0.166489	0.905357
	H6715	H	0.612737	0.227969	0.901177
	H6716	H	0.525105	0.217824	0.850534
	H6717	H	0.589163	0.168144	0.849813
	H6718	H	0.537362	0.219972	0.351111
	H6719	H	0.601806	0.169214	0.651285
	H6720	H	0.537481	0.219930	0.850749
	H6721	H	0.601524	0.170189	0.847830
	H6722	H	0.525063	0.217542	0.350582
	H6723	H	0.589413	0.166955	0.653027
	H6724	H	0.538297	0.163119	0.903821
	H6725	H	0.600783	0.224125	0.599167
	H6726	H	0.525957	0.162244	0.600503
	H6727	H	0.588504	0.225304	0.903041
	H6728	H	0.525866	0.162480	0.903373
	H6729	H	0.588402	0.223725	0.600028
	H6730	H	0.538346	0.162740	0.600624
	H6731	H	0.600913	0.225928	0.902015
	Co6732	Co	0.625915	0.256392	0.622913
	Co6733	Co	0.563378	0.194040	0.628913
	Co6734	Co	0.500876	0.131236	0.876002
	Co6735	Co	0.563353	0.193828	0.879472
	C6736	C	0.512093	0.220326	0.924022
	C6737	C	0.576205	0.169567	0.925836
	C6738	C	0.550399	0.217686	0.580670
	C6739	C	0.614755	0.168127	0.576150
	C6740	C	0.550484	0.218029	0.925085
	C6741	C	0.614663	0.167290	0.920694
	C6742	C	0.511967	0.219779	0.579052
	C6743	C	0.576358	0.170547	0.581788
	C6744	C	0.551213	0.168221	0.675399
	C6745	C	0.613644	0.230854	0.671414
	C6746	C	0.513001	0.157083	0.828610
	C6747	C	0.575620	0.218919	0.830807
	C6748	C	0.513045	0.156932	0.673493
	C6749	C	0.575436	0.220058	0.675874
	C6750	C	0.551189	0.168185	0.830777
	C6751	C	0.613786	0.230185	0.826921
	C6752	C	0.516456	0.217442	1.001876
	C6753	C	0.580694	0.167516	0.503296
	C6754	C	0.546052	0.220566	1.002718
	C6755	C	0.610282	0.170331	0.498971
	C6756	C	0.546897	0.164627	0.752846
	C6757	C	0.609430	0.226938	0.749677
	C6758	C	0.517338	0.160492	0.751310
	C6759	C	0.579837	0.222927	0.752851
	C6760	C	0.523975	0.217341	1.002341
	C6761	C	0.588200	0.167453	0.501740
	C6762	C	0.538552	0.220489	1.002470
	C6763	C	0.602771	0.170519	0.499786
	C6764	C	0.539445	0.162730	0.752482
	C6765	C	0.601957	0.225016	0.750511
	C6766	C	0.524797	0.162347	0.751769
	C6767	C	0.587303	0.224712	0.751752
	C6768	C	0.527757	0.218086	0.917888
	C6769	C	0.591877	0.168249	0.916652
	C6770	C	0.534757	0.219559	0.418662
	C6771	C	0.599089	0.169268	0.584519
	C6772	C	0.534820	0.219498	0.917908
	C6773	C	0.598952	0.169701	0.915671
	C6774	C	0.527688	0.218060	0.418160
	C6775	C	0.592027	0.167712	0.585490
	C6776	C	0.535640	0.162831	0.836560
	C6777	C	0.598155	0.224473	0.666539
	C6778	C	0.528598	0.162374	0.667829
	C6779	C	0.591128	0.225178	0.835557
	C6780	C	0.528542	0.162496	0.836182
	C6781	C	0.591064	0.224308	0.667129
	C6782	C	0.535692	0.162624	0.667969
	C6783	C	0.598226	0.225453	0.834963
	N6784	N	0.505587	0.225221	0.952898
	N6785	N	0.569753	0.174700	0.955495
	N6786	N	0.556881	0.212691	0.552052
	N6787	N	0.621210	0.162868	0.546681
	N6788	N	0.556957	0.212965	0.954671
	N6789	N	0.621168	0.162798	0.949268
	N6790	N	0.505501	0.224790	0.549760
	N6791	N	0.569854	0.175336	0.553211
	N6792	N	0.557465	0.174553	0.704883
	N6793	N	0.619934	0.237116	0.699998
	N6794	N	0.506747	0.150849	0.799583
	N6795	N	0.569296	0.213121	0.802909
	N6796	N	0.506789	0.150713	0.702180
	N6797	N	0.569192	0.213707	0.705253
	N6798	N	0.557458	0.174500	0.802082
	N6799	N	0.620024	0.236656	0.797055
	H6800	H	0.511499	0.331516	0.349258
	H6801	H	0.575636	0.280322	0.350956
	H6802	H	0.547518	0.331790	0.155783
	H6803	H	0.611862	0.282244	0.151123
	H6804	H	0.547599	0.331423	0.350967
	H6805	H	0.611688	0.280052	0.346341
	H6806	H	0.511366	0.330459	0.153522
	H6807	H	0.575715	0.281779	0.156364
	H6808	H	0.548323	0.279154	0.101243
	H6809	H	0.610660	0.342543	0.096136
	H6810	H	0.512289	0.272054	0.403259
	H6811	H	0.575020	0.332697	0.405018
	H6812	H	0.512474	0.270325	0.099639
	H6813	H	0.574695	0.334175	0.101204
	H6814	H	0.548283	0.278890	0.405560
	H6815	H	0.610980	0.340454	0.400482
	H6816	H	0.523376	0.330089	0.350466
	H6817	H	0.587461	0.281426	0.350046
	H6818	H	0.535569	0.332822	0.154704
	H6819	H	0.599971	0.281665	0.152012
	H6820	H	0.535713	0.332326	0.350844
	H6821	H	0.599858	0.283783	0.347916
	H6822	H	0.523196	0.330765	0.153956
	H6823	H	0.587628	0.279453	0.154040
	H6824	H	0.536487	0.275275	0.404749
	H6825	H	0.599118	0.338917	0.401739
	H6826	H	0.524186	0.274996	0.100623
	H6827	H	0.586529	0.335775	0.099442
	H6828	H	0.524087	0.274828	0.403726
	H6829	H	0.586742	0.338106	0.403215
	H6830	H	0.536578	0.275564	0.101173
	H6831	H	0.598945	0.336910	0.097812
	Co6832	Co	0.624149	0.368888	0.122431
	Co6833	Co	0.561581	0.306492	0.128979
	Co6834	Co	0.499105	0.243866	0.376585
	Co6835	Co	0.561640	0.306078	0.379015
	C6836	C	0.510347	0.332426	0.423844
	C6837	C	0.574526	0.282131	0.426029
	C6838	C	0.548661	0.330237	0.081115
	C6839	C	0.612951	0.280612	0.076203
	C6840	C	0.548754	0.330075	0.425585
	C6841	C	0.612944	0.279402	0.420648
	C6842	C	0.510216	0.332159	0.078887
	C6843	C	0.574538	0.282807	0.081043
	C6844	C	0.549445	0.280611	0.175822
	C6845	C	0.611855	0.343672	0.170381
	C6846	C	0.511205	0.269836	0.328966
	C6847	C	0.573808	0.331699	0.330781
	C6848	C	0.511281	0.269197	0.173828
	C6849	C	0.573652	0.332336	0.175664
	C6850	C	0.549421	0.280513	0.331215
	C6851	C	0.611996	0.342728	0.325591
	C6852	C	0.514729	0.329531	0.501822
	C6853	C	0.578885	0.279826	0.002978
	C6854	C	0.544316	0.332687	0.502957
	C6855	C	0.608468	0.282734	-0.001028
	C6856	C	0.545126	0.276954	0.253394
	C6857	C	0.607611	0.339729	0.248383
	C6858	C	0.515562	0.273182	0.251540
	C6859	C	0.578035	0.335487	0.252702
	C6860	C	0.522226	0.329534	0.502239
	C6861	C	0.586384	0.279623	0.002130
	C6862	C	0.536808	0.332812	0.502734
	C6863	C	0.600963	0.282801	-0.000085
	C6864	C	0.537675	0.275225	0.253119
	C6865	C	0.600160	0.337870	0.249511
	C6866	C	0.523017	0.275025	0.252079
	C6867	C	0.585506	0.337341	0.251279
	C6868	C	0.526006	0.330339	0.417864
	C6869	C	0.590195	0.281357	0.416718
	C6870	C	0.532943	0.332269	0.087080
	C6871	C	0.597275	0.281519	0.084935
	C6872	C	0.533068	0.331858	0.418064
	C6873	C	0.597256	0.282812	0.415579
	C6874	C	0.525872	0.330940	0.086709
	C6875	C	0.590209	0.280108	0.086126
	C6876	C	0.533868	0.275064	0.337166
	C6877	C	0.596450	0.338270	0.334424
	C6878	C	0.526813	0.275161	0.168027
	C6879	C	0.589232	0.336784	0.166269
	C6880	C	0.526764	0.274941	0.336623
	C6881	C	0.589350	0.338027	0.335303
	C6882	C	0.533915	0.275383	0.168472
	C6883	C	0.596334	0.337166	0.165547
	N6884	N	0.503852	0.337419	0.452576
	N6885	N	0.568051	0.287252	0.455628
	N6886	N	0.555140	0.325199	0.052375
	N6887	N	0.619420	0.275577	0.046280
	N6888	N	0.555215	0.325009	0.454652
	N6889	N	0.619455	0.274689	0.448903
	N6890	N	0.503728	0.337272	0.049933
	N6891	N	0.568045	0.287698	0.052830
	N6892	N	0.555721	0.286817	0.205069
	N6893	N	0.618171	0.349490	0.198832
	N6894	N	0.504970	0.263447	0.299838
	N6895	N	0.567492	0.325764	0.302654
	N6896	N	0.505030	0.263042	0.202702
	N6897	N	0.567403	0.326104	0.205237
	N6898	N	0.555685	0.286836	0.302415
	N6899	N	0.618257	0.348959	0.296247
	H6900	H	0.511503	0.331961	0.849025
	H6901	H	0.575509	0.280543	0.851044
	H6902	H	0.547497	0.331282	0.654813
	H6903	H	0.612015	0.282741	0.650395
	H6904	H	0.547487	0.331516	0.851096
	H6905	H	0.611563	0.280575	0.845843
	H6906	H	0.511410	0.330519	0.653923
	H6907	H	0.575900	0.282118	0.655409
	H6908	H	0.548423	0.278962	0.601356
	H6909	H	0.610666	0.342318	0.596279
	H6910	H	0.512335	0.271433	0.903091
	H6911	H	0.575004	0.332764	0.906416
	H6912	H	0.512376	0.270741	0.598784
	H6913	H	0.574709	0.334388	0.601284
	H6914	H	0.548245	0.279316	0.905586
	H6915	H	0.611059	0.340488	0.901071
	H6916	H	0.523310	0.329757	0.850362
	H6917	H	0.587381	0.280552	0.850333
	H6918	H	0.535672	0.332526	0.654254
	H6919	H	0.600132	0.281217	0.651326
	H6920	H	0.535697	0.332087	0.851394
	H6921	H	0.599741	0.282704	0.848221
	H6922	H	0.523270	0.330156	0.653638
	H6923	H	0.587760	0.279122	0.653357
	H6924	H	0.536647	0.275673	0.600547
	H6925	H	0.598969	0.336887	0.598399
	H6926	H	0.524143	0.274574	0.903269
	H6927	H	0.586745	0.338071	0.904075
	H6928	H	0.524268	0.274725	0.599875
	H6929	H	0.586568	0.335951	0.600564
	H6930	H	0.536559	0.275219	0.903716
	H6931	H	0.599147	0.338767	0.901939
	Co6932	Co	0.624074	0.368938	0.623035
	Co6933	Co	0.561640	0.306457	0.629519
	Co6934	Co	0.499149	0.243991	0.876405
	Co6935	Co	0.561578	0.306401	0.879135
	C6936	C	0.510285	0.333021	0.923773
	C6937	C	0.574432	0.282203	0.925715
	C6938	C	0.548711	0.330029	0.580497
	C6939	C	0.613073	0.280727	0.575742
	C6940	C	0.548668	0.330259	0.925869
	C6941	C	0.612818	0.279708	0.920793
	C6942	C	0.510297	0.331966	0.579273
	C6943	C	0.574667	0.282944	0.581223
	C6944	C	0.549521	0.280595	0.675816
	C6945	C	0.611872	0.343443	0.671108
	C6946	C	0.511259	0.269755	0.828321
	C6947	C	0.573811	0.331760	0.831732
	C6948	C	0.511287	0.269359	0.673533
	C6949	C	0.573670	0.332504	0.676262
	C6950	C	0.549423	0.280827	0.830925
	C6951	C	0.612054	0.342445	0.826380
	C6952	C	0.514637	0.330000	1.001552
	C6953	C	0.578997	0.279956	0.502947
	C6954	C	0.544245	0.332909	1.003350
	C6955	C	0.608604	0.282729	0.498548
	C6956	C	0.545171	0.277313	0.753098
	C6957	C	0.607660	0.339458	0.749160
	C6958	C	0.515594	0.273059	0.751008
	C6959	C	0.578058	0.335541	0.753485
	C6960	C	0.522142	0.329881	1.002057
	C6961	C	0.586516	0.279849	0.501722
	C6962	C	0.536732	0.332937	1.003016
	C6963	C	0.601096	0.282928	0.499504
	C6964	C	0.537698	0.275455	0.752452
	C6965	C	0.600185	0.337679	0.750112
	C6966	C	0.523050	0.274929	0.751455
	C6967	C	0.585526	0.337242	0.752363
	C6968	C	0.525943	0.330363	0.917855
	C6969	C	0.590086	0.280776	0.917154
	C6970	C	0.533029	0.331975	0.586931
	C6971	C	0.597409	0.281338	0.584439
	C6972	C	0.533006	0.331788	0.918366
	C6973	C	0.597149	0.282258	0.916133
	C6974	C	0.525960	0.330472	0.586617
	C6975	C	0.590345	0.279986	0.585600
	C6976	C	0.533967	0.275319	0.667623
	C6977	C	0.596350	0.337070	0.666171
	C6978	C	0.526802	0.274882	0.835971
	C6979	C	0.589345	0.337881	0.836241
	C6980	C	0.526870	0.275087	0.667454
	C6981	C	0.589258	0.336711	0.667547
	C6982	C	0.533892	0.275280	0.836560
	C6983	C	0.596440	0.338091	0.835105
	N6984	N	0.503779	0.337841	0.952623
	N6985	N	0.567972	0.287324	0.955072
	N6986	N	0.555190	0.324995	0.552095
	N6987	N	0.619531	0.275388	0.546445
	N6988	N	0.555152	0.325267	0.955054
	N6989	N	0.619325	0.274960	0.948924
	N6990	N	0.503823	0.337115	0.549908
	N6991	N	0.568149	0.287770	0.553154
	N6992	N	0.555796	0.286712	0.705307
	N6993	N	0.618182	0.349388	0.699240
	N6994	N	0.504989	0.263543	0.799790
	N6995	N	0.567498	0.325862	0.803282
	N6996	N	0.505005	0.263309	0.702131
	N6997	N	0.567419	0.326278	0.705870
	N6998	N	0.555732	0.286824	0.802439
	N6999	N	0.618307	0.348788	0.796717
	H7000	H	0.509724	0.444334	0.349363
	H7001	H	0.573845	0.392780	0.351045
	H7002	H	0.545763	0.443922	0.155504
	H7003	H	0.610191	0.395048	0.150282
	H7004	H	0.545836	0.444072	0.351498
	H7005	H	0.609952	0.393216	0.345953
	H7006	H	0.509638	0.444013	0.153947
	H7007	H	0.574076	0.394339	0.156224
	H7008	H	0.546621	0.391142	0.100667
	H7009	H	0.608973	0.454315	0.096571
	H7010	H	0.510496	0.384175	0.403544
	H7011	H	0.573249	0.445234	0.405564
	H7012	H	0.510637	0.383251	0.098481
	H7013	H	0.572908	0.446803	0.101454
	H7014	H	0.546483	0.391305	0.404622
	H7015	H	0.609169	0.453273	0.400834
	H7016	H	0.521523	0.442653	0.653657
	H7017	H	0.585733	0.393662	0.350069
	H7018	H	0.533860	0.445125	0.154497
	H7019	H	0.598348	0.393967	0.152012
	H7020	H	0.533862	0.444741	0.654617
	H7021	H	0.598077	0.396084	0.348884
	H7022	H	0.521509	0.443058	0.153865
	H7023	H	0.585942	0.391537	0.153590
	H7024	H	0.534787	0.388550	0.100084
	H7025	H	0.597134	0.449359	0.098522
	H7026	H	0.522375	0.386554	0.403470
	H7027	H	0.584916	0.450748	0.403555
	H7028	H	0.522412	0.387855	0.099695
	H7029	H	0.584745	0.448948	0.100681
	H7030	H	0.534762	0.387128	0.403876
	H7031	H	0.597346	0.451243	0.402007
	Co7032	Co	0.622349	0.481038	0.123054
	Co7033	Co	0.559849	0.418571	0.129234
	Co7034	Co	0.497382	0.356309	0.376565
	Co7035	Co	0.559794	0.418421	0.379279
	C7036	C	0.508552	0.445457	0.423782
	C7037	C	0.572743	0.394499	0.425553
	C7038	C	0.546925	0.442512	0.081115
	C7039	C	0.611303	0.393103	0.075902
	C7040	C	0.546979	0.442525	0.425890
	C7041	C	0.611117	0.392295	0.420813
	C7042	C	0.508521	0.445401	0.079036
	C7043	C	0.572864	0.395182	0.081158
	C7044	C	0.547718	0.392900	0.175403
	C7045	C	0.610124	0.455650	0.171106
	C7046	C	0.509446	0.382369	0.328607
	C7047	C	0.572036	0.444095	0.331611
	C7048	C	0.509507	0.381897	0.173531
	C7049	C	0.571898	0.444767	0.176197
	C7050	C	0.547647	0.392932	0.330626
	C7051	C	0.610245	0.454913	0.326597
	C7052	C	0.512939	0.442578	0.501554
	C7053	C	0.577236	0.392211	0.003419
	C7054	C	0.542537	0.444976	0.503458
	C7055	C	0.606820	0.395277	-0.001058
	C7056	C	0.543355	0.389521	0.252625
	C7057	C	0.605867	0.451897	0.249217
	C7058	C	0.513799	0.385671	0.251186
	C7059	C	0.576260	0.448038	0.253483
	C7060	C	0.520438	0.442208	0.502000
	C7061	C	0.584725	0.392178	0.002316
	C7062	C	0.535032	0.445142	0.502999
	C7063	C	0.599303	0.395441	0.000155
	C7064	C	0.535900	0.387780	0.252035
	C7065	C	0.598392	0.450171	0.250204
	C7066	C	0.521244	0.387453	0.251591
	C7067	C	0.583724	0.449911	0.252292
	C7068	C	0.524179	0.442942	0.586536
	C7069	C	0.588402	0.393638	0.417178
	C7070	C	0.531222	0.444732	0.087058
	C7071	C	0.595636	0.394031	0.085032
	C7072	C	0.531250	0.444295	0.587081
	C7073	C	0.595459	0.395174	0.416230
	C7074	C	0.524166	0.443441	0.086659
	C7075	C	0.588559	0.392486	0.086089
	C7076	C	0.532146	0.388132	0.167384
	C7077	C	0.594554	0.449635	0.166466
	C7078	C	0.525019	0.387059	0.336056
	C7079	C	0.587552	0.450501	0.335986
	C7080	C	0.525042	0.387933	0.167212
	C7081	C	0.587461	0.449477	0.167501
	C7082	C	0.532126	0.387270	0.336225
	C7083	C	0.594658	0.450700	0.334962
	N7084	N	0.502098	0.450770	0.452678
	N7085	N	0.566278	0.399647	0.455391
	N7086	N	0.553420	0.437406	0.052516
	N7087	N	0.617742	0.387845	0.046345
	N7088	N	0.553460	0.437616	0.455104
	N7089	N	0.617643	0.387509	0.449099
	N7090	N	0.502046	0.450658	0.050022
	N7091	N	0.566377	0.400040	0.052818
	N7092	N	0.553985	0.398949	0.204931
	N7093	N	0.616432	0.461505	0.199462
	N7094	N	0.503206	0.375981	0.299818
	N7095	N	0.565749	0.437903	0.303006
	N7096	N	0.503236	0.375686	0.202273
	N7097	N	0.565664	0.438349	0.205742
	N7098	N	0.553941	0.398955	0.302296
	N7099	N	0.616512	0.461096	0.297040
	H7100	H	0.509697	0.444194	0.849026
	H7101	H	0.573871	0.392606	0.851436
	H7102	H	0.545753	0.443604	0.656086
	H7103	H	0.610160	0.394653	0.651004
	H7104	H	0.545804	0.443842	0.851271
	H7105	H	0.609952	0.393038	0.846405
	H7106	H	0.509640	0.443659	0.654079
	H7107	H	0.574111	0.394391	0.655035
	H7108	H	0.546513	0.391893	0.600967
	H7109	H	0.609009	0.454410	0.595849
	H7110	H	0.510529	0.384523	0.903651
	H7111	H	0.573267	0.445038	0.906036
	H7112	H	0.510818	0.382515	0.599919
	H7113	H	0.572924	0.446843	0.601242
	H7114	H	0.546603	0.390351	0.905599
	H7115	H	0.609249	0.452956	0.901624
	H7116	H	0.521615	0.442489	0.850407
	H7117	H	0.585708	0.393679	0.850491
	H7118	H	0.533954	0.444744	0.351423
	H7119	H	0.598312	0.393565	0.651513
	H7120	H	0.533976	0.444879	0.850947
	H7121	H	0.598045	0.395874	0.848621
	H7122	H	0.521578	0.442582	0.350556
	H7123	H	0.585937	0.391485	0.653294
	H7124	H	0.534874	0.387833	0.601673
	H7125	H	0.597215	0.448995	0.598060
	H7126	H	0.522393	0.387099	0.903797
	H7127	H	0.584992	0.450794	0.903277
	H7128	H	0.522467	0.387236	0.600820
	H7129	H	0.584806	0.448378	0.600035
	H7130	H	0.534820	0.387544	0.903922
	H7131	H	0.597351	0.451393	0.901902
	Co7132	Co	0.622361	0.480967	0.623054
	Co7133	Co	0.559863	0.418847	0.629023
	Co7134	Co	0.497355	0.356766	0.876861
	Co7135	Co	0.559880	0.418275	0.879018
	C7136	C	0.508559	0.445723	0.923808
	C7137	C	0.572781	0.394307	0.925954
	C7138	C	0.546939	0.442300	0.581401
	C7139	C	0.611236	0.393048	0.575906
	C7140	C	0.546956	0.442439	0.925972
	C7141	C	0.611170	0.392099	0.920564
	C7142	C	0.508518	0.445173	0.579248
	C7143	C	0.572868	0.395445	0.580881
	C7144	C	0.547699	0.393114	0.675314
	C7145	C	0.610148	0.455549	0.670962
	C7146	C	0.509455	0.382528	0.829210
	C7147	C	0.572054	0.443969	0.831059
	C7148	C	0.509592	0.381501	0.674081
	C7149	C	0.571892	0.444852	0.675853
	C7150	C	0.547747	0.392468	0.831011
	C7151	C	0.610260	0.454885	0.826344
	C7152	C	0.512936	0.442802	1.001431
	C7153	C	0.577208	0.392396	0.502806
	C7154	C	0.542555	0.445192	1.003244
	C7155	C	0.606785	0.395222	0.499068
	C7156	C	0.543400	0.389331	0.753243
	C7157	C	0.605900	0.451850	0.748991
	C7158	C	0.513846	0.385514	0.751902
	C7159	C	0.576282	0.447910	0.752942
	C7160	C	0.520445	0.442433	1.001966
	C7161	C	0.584717	0.392245	0.502018
	C7162	C	0.535023	0.445432	1.002759
	C7163	C	0.599280	0.395371	0.500206
	C7164	C	0.535932	0.387609	0.753011
	C7165	C	0.598441	0.450077	0.749918
	C7166	C	0.521283	0.387342	0.752314
	C7167	C	0.583764	0.449751	0.751750
	C7168	C	0.524246	0.442984	0.917949
	C7169	C	0.588415	0.393542	0.917258
	C7170	C	0.531288	0.444300	0.418405
	C7171	C	0.595579	0.393846	0.584796
	C7172	C	0.531296	0.444447	0.918086
	C7173	C	0.595470	0.395064	0.916175
	C7174	C	0.524211	0.443042	0.417929
	C7175	C	0.588527	0.392416	0.585705
	C7176	C	0.532181	0.387661	0.668642
	C7177	C	0.594606	0.449431	0.665945
	C7178	C	0.525046	0.387369	0.836536
	C7179	C	0.587594	0.450419	0.835581
	C7180	C	0.525077	0.387430	0.668298
	C7181	C	0.587509	0.449139	0.666935
	C7182	C	0.532156	0.387499	0.837038
	C7183	C	0.594688	0.450740	0.834721
	N7184	N	0.502082	0.450902	0.952562
	N7185	N	0.566308	0.399480	0.955365
	N7186	N	0.553436	0.437514	0.552625
	N7187	N	0.617705	0.387945	0.546513
	N7188	N	0.553426	0.437245	0.955160
	N7189	N	0.617673	0.387298	0.948816
	N7190	N	0.502067	0.450466	0.550115
	N7191	N	0.566376	0.400135	0.552968
	N7192	N	0.553985	0.399076	0.704795
	N7193	N	0.616468	0.461484	0.699317
	N7194	N	0.503222	0.376184	0.799986
	N7195	N	0.565761	0.437994	0.803015
	N7196	N	0.503305	0.375549	0.702595
	N7197	N	0.565659	0.438501	0.705558
	N7198	N	0.554024	0.398734	0.801707
	N7199	N	0.616524	0.461216	0.796870
	H7200	H	0.508201	0.552049	0.348763
	H7201	H	0.572110	0.505683	0.350849
	H7202	H	0.544064	0.557563	0.156037
	H7203	H	0.608328	0.506791	0.151230
	H7204	H	0.544159	0.557032	0.350478
	H7205	H	0.608123	0.505640	0.346832
	H7206	H	0.508140	0.551624	0.154196
	H7207	H	0.572285	0.507236	0.154262
	H7208	H	0.544972	0.504757	0.100310
	H7209	H	0.607252	0.567818	0.096359
	H7210	H	0.508898	0.496642	0.403923
	H7211	H	0.571674	0.557391	0.406033
	H7212	H	0.509057	0.495985	0.099322
	H7213	H	0.571315	0.559538	0.101621
	H7214	H	0.544970	0.504284	0.404727
	H7215	H	0.607526	0.566069	0.401153
	H7216	H	0.519950	0.554551	0.351367
	H7217	H	0.583909	0.506323	0.350992
	H7218	H	0.532147	0.558870	0.153559
	H7219	H	0.596477	0.506157	0.151706
	H7220	H	0.532295	0.558296	0.351723
	H7221	H	0.596310	0.508597	0.349607
	H7222	H	0.519799	0.554966	0.152234
	H7223	H	0.584133	0.503932	0.153189
	H7224	H	0.533169	0.501025	0.101588
	H7225	H	0.595704	0.564484	0.401589
	H7226	H	0.520753	0.499222	0.404041
	H7227	H	0.583172	0.560409	0.100872
	H7228	H	0.520811	0.500030	0.100836
	H7229	H	0.583314	0.563575	0.403187
	H7230	H	0.533172	0.500239	0.404370
	H7231	H	0.595580	0.561417	0.099091
	Co7232	Co	0.620664	0.594629	0.122936
	Co7233	Co	0.558149	0.532219	0.128855
	Co7234	Co	0.495639	0.469777	0.376601
	Co7235	Co	0.558144	0.531605	0.378969
	C7236	C	0.506983	0.552771	0.423823
	C7237	C	0.570970	0.507440	0.425577
	C7238	C	0.545251	0.556122	0.081563
	C7239	C	0.609481	0.505188	0.076612
	C7240	C	0.545318	0.556120	0.425061
	C7241	C	0.609357	0.504489	0.421268
	C7242	C	0.506899	0.552556	0.079248
	C7243	C	0.571061	0.508298	0.080298
	C7244	C	0.546021	0.506165	0.175053
	C7245	C	0.608454	0.569063	0.171160
	C7246	C	0.507806	0.495084	0.329304
	C7247	C	0.570437	0.556530	0.331617
	C7248	C	0.507910	0.494711	0.174133
	C7249	C	0.570258	0.557604	0.176180
	C7250	C	0.546034	0.505983	0.330092
	C7251	C	0.608569	0.568236	0.326778
	C7252	C	0.511403	0.551763	0.501564
	C7253	C	0.575437	0.505291	0.001943
	C7254	C	0.540892	0.558862	0.502513
	C7255	C	0.604999	0.507623	-0.000865
	C7256	C	0.541740	0.502571	0.252656
	C7257	C	0.604207	0.565061	0.249141
	C7258	C	0.512175	0.498185	0.251984
	C7259	C	0.574677	0.560387	0.253244
	C7260	C	0.518873	0.553748	0.501775
	C7261	C	0.582912	0.504864	0.001456
	C7262	C	0.533370	0.558810	0.502315
	C7263	C	0.597510	0.507806	0.000081
	C7264	C	0.534290	0.500558	0.252919
	C7265	C	0.596766	0.562947	0.250087
	C7266	C	0.519649	0.499813	0.252455
	C7267	C	0.582125	0.562144	0.252038
	C7268	C	0.522617	0.555290	0.417967
	C7269	C	0.586638	0.506301	0.417740
	C7270	C	0.529560	0.557890	0.086195
	C7271	C	0.593801	0.506279	0.084745
	C7272	C	0.529644	0.557614	0.418307
	C7273	C	0.593699	0.507629	0.417024
	C7274	C	0.522522	0.555489	0.085839
	C7275	C	0.586714	0.504867	0.085520
	C7276	C	0.530509	0.500565	0.168609
	C7277	C	0.593030	0.563566	0.334721
	C7278	C	0.523416	0.499702	0.336786
	C7279	C	0.585860	0.561361	0.167589
	C7280	C	0.523427	0.500159	0.168402
	C7281	C	0.585923	0.563137	0.335674
	C7282	C	0.530508	0.500134	0.337150
	C7283	C	0.592955	0.561886	0.166669
	N7284	N	0.500370	0.555016	0.452062
	N7285	N	0.564520	0.512732	0.455108
	N7286	N	0.551728	0.551154	0.052765
	N7287	N	0.615938	0.499995	0.046967
	N7288	N	0.551784	0.550953	0.454334
	N7289	N	0.615860	0.499555	0.449400
	N7290	N	0.500293	0.554985	0.050244
	N7291	N	0.564592	0.513407	0.051870
	N7292	N	0.552284	0.512480	0.203882
	N7293	N	0.614737	0.575157	0.199700
	N7294	N	0.501517	0.489172	0.300090
	N7295	N	0.564107	0.550972	0.303197
	N7296	N	0.501587	0.488994	0.202571
	N7297	N	0.564001	0.551572	0.205804
	N7298	N	0.552308	0.512246	0.301448
	N7299	N	0.614814	0.574640	0.297128
	H7300	H	0.508145	0.551764	0.849082
	H7301	H	0.572121	0.506220	0.850281
	H7302	H	0.544068	0.557465	0.655426
	H7303	H	0.608380	0.506900	0.651672
	H7304	H	0.544088	0.557442	0.850728
	H7305	H	0.608141	0.505774	0.846904
	H7306	H	0.508150	0.551717	0.653431
	H7307	H	0.572280	0.506918	0.655898
	H7308	H	0.545045	0.504503	0.600832
	H7309	H	0.607419	0.567352	0.597666
	H7310	H	0.509086	0.496537	0.903983
	H7311	H	0.571661	0.558420	0.905454
	H7312	H	0.509150	0.496073	0.598754
	H7313	H	0.571484	0.559196	0.600892
	H7314	H	0.544944	0.504990	0.904775
	H7315	H	0.607604	0.566564	0.901809
	H7316	H	0.519955	0.554525	0.851114
	H7317	H	0.583909	0.506353	0.850368
	H7318	H	0.532239	0.558716	0.653106
	H7319	H	0.596522	0.506073	0.652440
	H7320	H	0.532260	0.558334	0.851551
	H7321	H	0.596303	0.508283	0.848909
	H7322	H	0.519913	0.554850	0.652673
	H7323	H	0.584145	0.503868	0.653621
	H7324	H	0.533214	0.500230	0.903140
	H7325	H	0.595813	0.564636	0.901682
	H7326	H	0.520857	0.499740	0.600694
	H7327	H	0.583324	0.560710	0.600628
	H7328	H	0.520856	0.499114	0.902887
	H7329	H	0.583385	0.563711	0.902854
	H7330	H	0.533283	0.500441	0.601045
	H7331	H	0.595723	0.561531	0.599783
	Co7332	Co	0.620694	0.594653	0.623413
	Co7333	Co	0.558209	0.532427	0.628226
	Co7334	Co	0.495665	0.470146	0.876847
	Co7335	Co	0.558175	0.532503	0.878804
	C7336	C	0.506906	0.552452	0.923448
	C7337	C	0.570974	0.507894	0.924687
	C7338	C	0.545280	0.556191	0.580387
	C7339	C	0.609484	0.505173	0.576606
	C7340	C	0.545275	0.556260	0.925878
	C7341	C	0.609379	0.504689	0.921037
	C7342	C	0.506961	0.552525	0.578958
	C7343	C	0.571077	0.508112	0.580734
	C7344	C	0.546137	0.506223	0.675444
	C7345	C	0.608577	0.568797	0.671738
	C7346	C	0.507933	0.494950	0.829044
	C7347	C	0.570502	0.557156	0.830784
	C7348	C	0.507967	0.494626	0.673551
	C7349	C	0.570409	0.557576	0.675383
	C7350	C	0.546064	0.506498	0.830310
	C7351	C	0.608666	0.568507	0.827070
	C7352	C	0.511349	0.551607	1.001352
	C7353	C	0.575416	0.505045	0.502779
	C7354	C	0.540837	0.558875	1.003547
	C7355	C	0.605017	0.507501	0.499498
	C7356	C	0.541817	0.502522	0.752518
	C7357	C	0.604351	0.564893	0.749889
	C7358	C	0.512271	0.498001	0.751405
	C7359	C	0.574764	0.560586	0.752690
	C7360	C	0.518827	0.553710	1.001649
	C7361	C	0.582935	0.504776	0.502344
	C7362	C	0.533351	0.558758	1.002774
	C7363	C	0.597515	0.507646	0.500722
	C7364	C	0.534371	0.500271	0.752043
	C7365	C	0.596877	0.562842	0.750607
	C7366	C	0.519740	0.499548	0.751654
	C7367	C	0.582230	0.562224	0.751866
	C7368	C	0.522599	0.555236	0.918108
	C7369	C	0.586617	0.506221	0.917130
	C7370	C	0.529622	0.557810	0.586134
	C7371	C	0.593823	0.506136	0.585393
	C7372	C	0.529643	0.557607	0.918793
	C7373	C	0.593702	0.507518	0.916435
	C7374	C	0.522590	0.555417	0.585954
	C7375	C	0.586759	0.504807	0.586266
	C7376	C	0.530574	0.500051	0.835927
	C7377	C	0.593120	0.563614	0.834997
	C7378	C	0.523509	0.499713	0.667797
	C7379	C	0.585977	0.561506	0.667588
	C7380	C	0.523491	0.499522	0.835750
	C7381	C	0.586025	0.563156	0.835528
	C7382	C	0.530604	0.500059	0.668008
	C7383	C	0.593064	0.561920	0.666838
	N7384	N	0.500305	0.554926	0.952277
	N7385	N	0.564545	0.513226	0.954304
	N7386	N	0.551769	0.551086	0.551657
	N7387	N	0.615945	0.499977	0.546709
	N7388	N	0.551744	0.551241	0.955059
	N7389	N	0.615863	0.499645	0.949456
	N7390	N	0.500359	0.554916	0.550184
	N7391	N	0.564578	0.513165	0.552369
	N7392	N	0.552352	0.512833	0.704670
	N7393	N	0.614832	0.575249	0.700251
	N7394	N	0.501614	0.489217	0.799774
	N7395	N	0.564158	0.551592	0.802332
	N7396	N	0.501624	0.489048	0.702483
	N7397	N	0.564105	0.551801	0.704757
	N7398	N	0.552297	0.513030	0.801833
	N7399	N	0.614887	0.575066	0.797479
	H7400	H	0.517453	0.760536	0.348734
	H7401	H	0.570673	0.613254	0.350491
	H7402	H	0.544922	0.676631	0.153896
	H7403	H	0.606719	0.620153	0.151367
	H7404	H	0.545113	0.676331	0.350134
	H7405	H	0.606587	0.619376	0.346926
	H7406	H	0.517451	0.760920	0.150361
	H7407	H	0.570636	0.614769	0.154536
	H7408	H	0.541981	0.616534	0.101112
	H7409	H	0.604389	0.679377	0.098778
	H7410	H	0.506262	0.604881	0.403997
	H7411	H	0.569065	0.666247	0.404519
	H7412	H	0.506481	0.604391	0.099652
	H7413	H	0.568773	0.667573	0.100758
	H7414	H	0.542001	0.616710	0.404060
	H7415	H	0.604524	0.678965	0.402504
	H7416	H	0.527006	0.735373	0.439430
	H7417	H	0.582353	0.618314	0.351077
	H7418	H	0.535657	0.702894	0.044422
	H7419	H	0.594842	0.619099	0.151500
	H7420	H	0.536624	0.706215	0.439492
	H7421	H	0.594699	0.622358	0.349780
	H7422	H	0.526112	0.732385	0.043222
	H7423	H	0.582571	0.615086	0.152315
	H7424	H	0.530216	0.616346	0.402280
	H7425	H	0.592677	0.680920	0.398746
	H7426	H	0.517790	0.614242	0.104692
	H7427	H	0.580316	0.673481	0.103581
	H7428	H	0.517825	0.613877	0.401890
	H7429	H	0.580280	0.678149	0.399435
	H7430	H	0.530193	0.616617	0.103889
	H7431	H	0.592720	0.676321	0.102352
	Co7432	Co	0.618789	0.697701	0.125139
	Co7433	Co	0.556251	0.635374	0.127944
	Co7434	Co	0.493779	0.572722	0.376079
	Co7435	Co	0.556330	0.634964	0.378135
	C7436	C	0.516615	0.763717	0.422601
	C7437	C	0.569471	0.614661	0.425314
	C7438	C	0.545798	0.673424	0.079844
	C7439	C	0.607836	0.618822	0.076751
	C7440	C	0.545905	0.673319	0.424284
	C7441	C	0.607783	0.618385	0.421419
	C7442	C	0.516626	0.763906	0.076837
	C7443	C	0.569461	0.615340	0.079649
	C7444	C	0.543222	0.617091	0.175056
	C7445	C	0.605687	0.679735	0.172624
	C7446	C	0.505308	0.602870	0.329402
	C7447	C	0.567933	0.664547	0.330376
	C7448	C	0.505418	0.602573	0.174438
	C7449	C	0.567798	0.665140	0.174978
	C7450	C	0.543232	0.617053	0.330032
	C7451	C	0.605736	0.679540	0.327978
	C7452	C	0.519945	0.753062	0.500044
	C7453	C	0.573867	0.613969	0.001897
	C7454	C	0.542544	0.683971	0.501255
	C7455	C	0.603400	0.621211	-0.000559
	C7456	C	0.538803	0.616027	0.252597
	C7457	C	0.601288	0.678690	0.250515
	C7458	C	0.509465	0.608378	0.252414
	C7459	C	0.571949	0.670491	0.252299
	C7460	C	0.525656	0.735493	0.500379
	C7461	C	0.581340	0.615888	0.001398
	C7462	C	0.536857	0.701618	0.500688
	C7463	C	0.595883	0.621060	0.000430
	C7464	C	0.531327	0.615741	0.252964
	C7465	C	0.593812	0.678248	0.250791
	C7466	C	0.516777	0.613168	0.253043
	C7467	C	0.579258	0.675366	0.251541
	C7468	C	0.528833	0.728056	0.466306
	C7469	C	0.585076	0.618336	0.417573
	C7470	C	0.533766	0.709750	0.025660
	C7471	C	0.592189	0.618873	0.084522
	C7472	C	0.534276	0.711577	0.466272
	C7473	C	0.592101	0.620786	0.416895
	C7474	C	0.528372	0.726420	0.024882
	C7475	C	0.585155	0.616520	0.085010
	C7476	C	0.527576	0.615703	0.335947
	C7477	C	0.590033	0.679207	0.333527
	C7478	C	0.520498	0.614535	0.170009
	C7479	C	0.582992	0.675233	0.168539
	C7480	C	0.520508	0.614420	0.336015
	C7481	C	0.582965	0.677768	0.333916
	C7482	C	0.527567	0.615820	0.169952
	C7483	C	0.590061	0.676725	0.168258
	N7484	N	0.511803	0.779639	0.452068
	N7485	N	0.562870	0.617265	0.454526
	N7486	N	0.550619	0.657556	0.050677
	N7487	N	0.614321	0.613864	0.047347
	N7488	N	0.550706	0.657422	0.454287
	N7489	N	0.614271	0.613323	0.449810
	N7490	N	0.511779	0.779628	0.047404
	N7491	N	0.562859	0.617660	0.051708
	N7492	N	0.549779	0.619138	0.203690
	N7493	N	0.612246	0.681732	0.201138
	N7494	N	0.499423	0.593665	0.299776
	N7495	N	0.562003	0.655590	0.301252
	N7496	N	0.499493	0.593521	0.203100
	N7497	N	0.561924	0.655930	0.204862
	N7498	N	0.549764	0.619169	0.301482
	N7499	N	0.612267	0.681637	0.298641
	H7500	H	0.517631	0.761350	0.848802
	H7501	H	0.570573	0.613664	0.849869
	H7502	H	0.544895	0.676464	0.652669
	H7503	H	0.606799	0.620410	0.651587
	H7504	H	0.544851	0.675844	0.850948
	H7505	H	0.606561	0.619647	0.846518
	H7506	H	0.517550	0.761095	0.651696
	H7507	H	0.570822	0.615239	0.655180
	H7508	H	0.542010	0.616707	0.600543
	H7509	H	0.604418	0.679633	0.597936
	H7510	H	0.506441	0.604438	0.903681
	H7511	H	0.569045	0.666345	0.905105
	H7512	H	0.506419	0.605016	0.600276
	H7513	H	0.568757	0.667620	0.601342
	H7514	H	0.541992	0.616523	0.904364
	H7515	H	0.604547	0.678652	0.901701
	H7516	H	0.526806	0.734445	0.957675
	H7517	H	0.582307	0.618720	0.850781
	H7518	H	0.535503	0.701705	0.561468
	H7519	H	0.594949	0.619317	0.650842
	H7520	H	0.536361	0.705041	0.958780
	H7521	H	0.594636	0.622761	0.849616
	H7522	H	0.525899	0.730833	0.561456
	H7523	H	0.582602	0.615340	0.652391
	H7524	H	0.530207	0.616456	0.604714
	H7525	H	0.592746	0.676091	0.602879
	H7526	H	0.517848	0.613634	0.900662
	H7527	H	0.580317	0.678677	0.900048
	H7528	H	0.517777	0.614162	0.604367
	H7529	H	0.580358	0.673520	0.603759
	H7530	H	0.530231	0.616075	0.900498
	H7531	H	0.592750	0.681061	0.898901
	Co7532	Co	0.618784	0.697766	0.624919
	Co7533	Co	0.556298	0.635623	0.628555
	Co7534	Co	0.493723	0.572735	0.876207
	Co7535	Co	0.556272	0.635135	0.877883
	C7536	C	0.516732	0.764152	0.922544
	C7537	C	0.569401	0.614618	0.924623
	C7538	C	0.545796	0.673408	0.578941
	C7539	C	0.607871	0.618865	0.576582
	C7540	C	0.545755	0.673083	0.924931
	C7541	C	0.607758	0.618523	0.921296
	C7542	C	0.516662	0.763928	0.577411
	C7543	C	0.569551	0.615693	0.580584
	C7544	C	0.543221	0.617246	0.674905
	C7545	C	0.605675	0.679820	0.672275
	C7546	C	0.505354	0.602462	0.829519
	C7547	C	0.567951	0.664690	0.830591
	C7548	C	0.505352	0.602701	0.674273
	C7549	C	0.567803	0.665562	0.675936
	C7550	C	0.543221	0.617128	0.830087
	C7551	C	0.605747	0.679294	0.827449
	C7552	C	0.520007	0.753390	0.999937
	C7553	C	0.573927	0.614178	0.502527
	C7554	C	0.542470	0.683978	1.002303
	C7555	C	0.603429	0.621347	0.499395
	C7556	C	0.538782	0.616105	0.752402
	C7557	C	0.601302	0.678528	0.750021
	C7558	C	0.509440	0.608321	0.752104
	C7559	C	0.571967	0.670722	0.753184
	C7560	C	0.525693	0.735756	1.000279
	C7561	C	0.581407	0.616008	0.501733
	C7562	C	0.536794	0.701572	1.001751
	C7563	C	0.595919	0.621137	0.500173
	C7564	C	0.531304	0.615695	0.752381
	C7565	C	0.593816	0.678062	0.750798
	C7566	C	0.516744	0.613030	0.752361
	C7567	C	0.579277	0.675405	0.752184
	C7568	C	0.528733	0.727549	0.976417
	C7569	C	0.585020	0.618554	0.917405
	C7570	C	0.533658	0.709112	0.534722
	C7571	C	0.592235	0.619239	0.584400
	C7572	C	0.534132	0.710906	0.977238
	C7573	C	0.592057	0.621017	0.916759
	C7574	C	0.528222	0.725598	0.534615
	C7575	C	0.585208	0.616808	0.585242
	C7576	C	0.527540	0.615734	0.669868
	C7577	C	0.590074	0.676582	0.668416
	C7578	C	0.520485	0.614159	0.834928
	C7579	C	0.583010	0.677924	0.834526
	C7580	C	0.520464	0.614414	0.669839
	C7581	C	0.583017	0.675226	0.669056
	C7582	C	0.527562	0.615456	0.834944
	C7583	C	0.590078	0.679276	0.833706
	N7584	N	0.511848	0.779840	0.951752
	N7585	N	0.562811	0.617289	0.953439
	N7586	N	0.550655	0.657542	0.550250
	N7587	N	0.614341	0.613746	0.547342
	N7588	N	0.550606	0.657329	0.954641
	N7589	N	0.614270	0.613707	0.949659
	N7590	N	0.511841	0.779767	0.547864
	N7591	N	0.562923	0.617894	0.552651
	N7592	N	0.549747	0.619411	0.704076
	N7593	N	0.612228	0.681822	0.700916
	N7594	N	0.499469	0.593252	0.800036
	N7595	N	0.562011	0.655754	0.801846
	N7596	N	0.499458	0.593403	0.703306
	N7597	N	0.561913	0.656315	0.705234
	N7598	N	0.549748	0.619237	0.801337
	N7599	N	0.612266	0.681473	0.798251
	H7600	H	0.518348	0.879888	0.347714
	H7601	H	0.579910	0.823133	0.349649
	H7602	H	0.554279	0.885161	0.152935
	H7603	H	0.607525	0.738922	0.150263
	H7604	H	0.554395	0.885817	0.348334
	H7605	H	0.607473	0.738676	0.348217
	H7606	H	0.518370	0.879940	0.151253
	H7607	H	0.580051	0.823306	0.152217
	H7608	H	0.556158	0.832991	0.098475
	H7609	H	0.618512	0.896101	0.096793
	H7610	H	0.520512	0.820722	0.401038
	H7611	H	0.583073	0.882416	0.401954
	H7612	H	0.520546	0.820550	0.098475
	H7613	H	0.583032	0.883478	0.098778
	H7614	H	0.556063	0.832932	0.402742
	H7615	H	0.618735	0.894375	0.400760
	H7616	H	0.530265	0.878382	0.349594
	H7617	H	0.589178	0.796413	0.452173
	H7618	H	0.542487	0.883076	0.151313
	H7619	H	0.598435	0.766070	0.045764
	H7620	H	0.542601	0.882254	0.349898
	H7621	H	0.598751	0.767235	0.452486
	H7622	H	0.530139	0.879110	0.150876
	H7623	H	0.588837	0.795283	0.046463
	H7624	H	0.544680	0.823991	0.101805
	H7625	H	0.607246	0.887085	0.397410
	H7626	H	0.532244	0.821124	0.397505
	H7627	H	0.594853	0.882233	0.101508
	H7628	H	0.532287	0.821453	0.101539
	H7629	H	0.594819	0.884811	0.398120
	H7630	H	0.544653	0.823447	0.398244
	H7631	H	0.607244	0.884588	0.101439
	Co7632	Co	0.631231	0.927218	0.123720
	Co7633	Co	0.568722	0.864556	0.126089
	Co7634	Co	0.506249	0.802001	0.374759
	Co7635	Co	0.568729	0.864382	0.375890
	C7636	C	0.517222	0.881350	0.422428
	C7637	C	0.579123	0.826189	0.423303
	C7638	C	0.555504	0.884538	0.078594
	C7639	C	0.608370	0.735790	0.076601
	C7640	C	0.555577	0.884836	0.423024
	C7641	C	0.608348	0.735739	0.421883
	C7642	C	0.517190	0.881365	0.077485
	C7643	C	0.579168	0.826365	0.078176
	C7644	C	0.557168	0.834751	0.173222
	C7645	C	0.619636	0.897520	0.171038
	C7646	C	0.519298	0.820236	0.327020
	C7647	C	0.581841	0.882390	0.327911
	C7648	C	0.519307	0.820183	0.172194
	C7649	C	0.581799	0.882774	0.172751
	C7650	C	0.557113	0.834828	0.328059
	C7651	C	0.619743	0.896762	0.326154
	C7652	C	0.521618	0.878676	0.500298
	C7653	C	0.582501	0.815716	0.000592
	C7654	C	0.551129	0.885763	0.500490
	C7655	C	0.605000	0.746411	-0.000744
	C7656	C	0.553048	0.829241	0.250442
	C7657	C	0.615598	0.891421	0.248812
	C7658	C	0.523696	0.821329	0.249639
	C7659	C	0.586240	0.883726	0.250206
	C7660	C	0.529120	0.878842	0.500263
	C7661	C	0.588143	0.798016	0.000175
	C7662	C	0.543650	0.883907	0.500146
	C7663	C	0.599302	0.763941	-0.000571
	C7664	C	0.545740	0.824510	0.250136
	C7665	C	0.608278	0.886693	0.249389
	C7666	C	0.531190	0.821836	0.249677
	C7667	C	0.593732	0.884111	0.249816
	C7668	C	0.532874	0.879554	0.416482
	C7669	C	0.591159	0.789735	0.472972
	C7670	C	0.539842	0.882190	0.084311
	C7671	C	0.596385	0.772496	0.025913
	C7672	C	0.539918	0.881939	0.416375
	C7673	C	0.596565	0.773128	0.472973
	C7674	C	0.532796	0.879857	0.084124
	C7675	C	0.590968	0.789117	0.026277
	C7676	C	0.542018	0.823351	0.167382
	C7677	C	0.604559	0.886187	0.332355
	C7678	C	0.534940	0.821861	0.332294
	C7679	C	0.597497	0.883411	0.166954
	C7680	C	0.534956	0.822061	0.166959
	C7681	C	0.597487	0.884914	0.332575
	C7682	C	0.541994	0.823210	0.332580
	C7683	C	0.604564	0.884739	0.166926
	N7684	N	0.510734	0.886263	0.451085
	N7685	N	0.574338	0.842118	0.453169
	N7686	N	0.562096	0.882183	0.050151
	N7687	N	0.613167	0.719915	0.047120
	N7688	N	0.562191	0.882274	0.451940
	N7689	N	0.613170	0.719841	0.451449
	N7690	N	0.510714	0.886309	0.048609
	N7691	N	0.574346	0.842247	0.048965
	N7692	N	0.563089	0.843797	0.202573
	N7693	N	0.625541	0.906542	0.200146
	N7694	N	0.512768	0.817970	0.298235
	N7695	N	0.575297	0.880245	0.299331
	N7696	N	0.512764	0.817975	0.200898
	N7697	N	0.575257	0.880564	0.201769
	N7698	N	0.563040	0.843887	0.299293
	N7699	N	0.625617	0.906110	0.296696
	H7700	H	0.518376	0.880007	0.847620
	H7701	H	0.580128	0.823887	0.849020
	H7702	H	0.554299	0.885143	0.653204
	H7703	H	0.607356	0.738430	0.650395
	H7704	H	0.554350	0.885984	0.848487
	H7705	H	0.607326	0.738166	0.847911
	H7706	H	0.518340	0.880149	0.652996
	H7707	H	0.580195	0.823410	0.651773
	H7708	H	0.556228	0.832118	0.599064
	H7709	H	0.618509	0.896016	0.595910
	H7710	H	0.520470	0.820938	0.902551
	H7711	H	0.583025	0.883051	0.902688
	H7712	H	0.520579	0.820774	0.598659
	H7713	H	0.582975	0.882743	0.598053
	H7714	H	0.556051	0.833310	0.902447
	H7715	H	0.618609	0.895117	0.899702
	H7716	H	0.530224	0.878525	0.848855
	H7717	H	0.589004	0.795949	0.953143
	H7718	H	0.542568	0.883677	0.650307
	H7719	H	0.598320	0.765365	0.545829
	H7720	H	0.542559	0.882470	0.849656
	H7721	H	0.598582	0.766574	0.952391
	H7722	H	0.530209	0.879648	0.650721
	H7723	H	0.588761	0.794794	0.546357
	H7724	H	0.544688	0.824492	0.602086
	H7725	H	0.607159	0.884604	0.601256
	H7726	H	0.532296	0.820720	0.898956
	H7727	H	0.594746	0.885870	0.897696
	H7728	H	0.532240	0.822021	0.602387
	H7729	H	0.594713	0.881823	0.602071
	H7730	H	0.544738	0.823083	0.898749
	H7731	H	0.607199	0.887908	0.897107
	Co7732	Co	0.631192	0.927393	0.623501
	Co7733	Co	0.568721	0.864262	0.626525
	Co7734	Co	0.506218	0.802153	0.874812
	Co7735	Co	0.568681	0.864630	0.876122
	C7736	C	0.517194	0.881320	0.922084
	C7737	C	0.579210	0.826713	0.923477
	C7738	C	0.555542	0.884585	0.578178
	C7739	C	0.608276	0.735575	0.576447
	C7740	C	0.555534	0.884959	0.923279
	C7741	C	0.608277	0.735410	0.921843
	C7742	C	0.517187	0.881384	0.577707
	C7743	C	0.579247	0.826404	0.577900
	C7744	C	0.557198	0.834332	0.673418
	C7745	C	0.619573	0.897693	0.670436
	C7746	C	0.519291	0.820390	0.828293
	C7747	C	0.581829	0.882588	0.828034
	C7748	C	0.519338	0.820162	0.673122
	C7749	C	0.581799	0.882443	0.672948
	C7750	C	0.557095	0.834929	0.828401
	C7751	C	0.619632	0.897210	0.825581
	C7752	C	0.521594	0.878606	0.999763
	C7753	C	0.582502	0.815621	0.500335
	C7754	C	0.551063	0.885704	1.000912
	C7755	C	0.605017	0.746396	0.499003
	C7756	C	0.553080	0.829042	0.750822
	C7757	C	0.615540	0.891901	0.748101
	C7758	C	0.523717	0.821367	0.750944
	C7759	C	0.586199	0.883709	0.750310
	C7760	C	0.529081	0.878699	0.999954
	C7761	C	0.588187	0.797992	0.499744
	C7762	C	0.543590	0.883761	1.000512
	C7763	C	0.599312	0.763916	0.498990
	C7764	C	0.545758	0.824303	0.750595
	C7765	C	0.608221	0.886994	0.748973
	C7766	C	0.531215	0.821797	0.750800
	C7767	C	0.593702	0.884205	0.749798
	C7768	C	0.532845	0.879619	0.915871
	C7769	C	0.591049	0.789432	0.973399
	C7770	C	0.539886	0.882746	0.583941
	C7771	C	0.596339	0.772145	0.525433
	C7772	C	0.539887	0.881981	0.916225
	C7773	C	0.596476	0.772824	0.973155
	C7774	C	0.532849	0.880301	0.583766
	C7775	C	0.590924	0.788749	0.525742
	C7776	C	0.542011	0.823542	0.667600
	C7777	C	0.604481	0.884780	0.666617
	C7778	C	0.534971	0.821651	0.833516
	C7779	C	0.597460	0.885364	0.832277
	C7780	C	0.534947	0.822312	0.667897
	C7781	C	0.597424	0.883429	0.666988
	C7782	C	0.542028	0.822913	0.833437
	C7783	C	0.604511	0.886779	0.831968
	N7784	N	0.510712	0.886355	0.951245
	N7785	N	0.574378	0.842473	0.953164
	N7786	N	0.562153	0.882060	0.550073
	N7787	N	0.613125	0.719760	0.547097
	N7788	N	0.562130	0.882446	0.952213
	N7789	N	0.613096	0.719656	0.951240
	N7790	N	0.510720	0.886307	0.548779
	N7791	N	0.574412	0.842215	0.549043
	N7792	N	0.563106	0.843534	0.702783
	N7793	N	0.625506	0.906708	0.699683
	N7794	N	0.512755	0.818191	0.799084
	N7795	N	0.575288	0.880261	0.799494
	N7796	N	0.512792	0.818030	0.701675
	N7797	N	0.575259	0.880262	0.702267
	N7798	N	0.563031	0.843915	0.799593
	N7799	N	0.625572	0.906290	0.796696
	H7800	H	0.516699	0.993670	0.348032
	H7801	H	0.580765	0.942242	0.349772
	H7802	H	0.552807	0.993378	0.154572
	H7803	H	0.616890	0.948572	0.152112
	H7804	H	0.552865	0.993887	0.350158
	H7805	H	0.616732	0.947482	0.346430
	H7806	H	0.516779	0.993505	0.153473
	H7807	H	0.580996	0.942496	0.153859
	H7808	H	0.553471	0.940790	0.100473
	H7809	H	0.615801	1.004472	0.095958
	H7810	H	0.517486	0.932791	0.402856
	H7811	H	0.580059	0.994908	0.403274
	H7812	H	0.517565	0.933087	0.098504
	H7813	H	0.579904	0.995686	0.099684
	H7814	H	0.553373	0.941520	0.404393
	H7815	H	0.616006	1.003420	0.400750
	H7816	H	0.528662	0.992530	0.349007
	H7817	H	0.592621	0.942671	0.350317
	H7818	H	0.541051	0.994904	-0.149693
	H7819	H	0.605176	0.944240	0.150446
	H7820	H	0.541039	0.994790	0.350150
	H7821	H	0.604934	0.946691	0.348989
	H7822	H	0.528618	0.992783	-0.149680
	H7823	H	0.592847	0.940231	0.151092
	H7824	H	0.541697	0.937741	0.100938
	H7825	H	0.604120	0.999706	0.098510
	H7826	H	0.529181	0.937221	0.402315
	H7827	H	0.591736	1.000770	0.401597
	H7828	H	0.529275	0.936742	0.100658
	H7829	H	0.591705	0.998515	0.099311
	H7830	H	0.541608	0.938178	0.403043
	H7831	H	0.604192	1.001919	0.400413
	Co7832	Co	0.629356	1.030141	0.123366
	Co7833	Co	0.566857	0.967496	0.127266
	Co7834	Co	0.504298	0.905072	0.374965
	Co7835	Co	0.566765	0.967887	0.377733
	C7836	C	0.515575	0.995043	0.423015
	C7837	C	0.579628	0.943495	0.424068
	C7838	C	0.554007	0.992003	0.079495
	C7839	C	0.618120	0.947622	0.076814
	C7840	C	0.553990	0.992388	0.424801
	C7841	C	0.617972	0.946968	0.420858
	C7842	C	0.515613	0.994897	0.078622
	C7843	C	0.579784	0.943867	0.079122
	C7844	C	0.554590	0.942470	0.174761
	C7845	C	0.617003	1.005583	0.171123
	C7846	C	0.516391	0.931188	0.328068
	C7847	C	0.578923	0.993564	0.329080
	C7848	C	0.516431	0.931316	0.172787
	C7849	C	0.578855	0.993878	0.174141
	C7850	C	0.554528	0.942895	0.329920
	C7851	C	0.617091	1.005087	0.326459
	C7852	C	0.519994	0.992377	0.500557
	C7853	C	0.584185	0.941046	0.001316
	C7854	C	0.549573	0.995039	0.502085
	C7855	C	0.613632	0.948414	-0.000502
	C7856	C	0.550245	0.939392	0.252233
	C7857	C	0.612727	1.002143	0.249059
	C7858	C	0.520698	0.934976	0.250793
	C7859	C	0.583176	0.997395	0.251312
	C7860	C	0.527495	0.992214	0.500610
	C7861	C	0.591664	0.941252	0.000701
	C7862	C	0.542065	0.995265	0.501472
	C7863	C	0.606167	0.946459	0.000087
	C7864	C	0.542775	0.937658	0.252000
	C7865	C	0.605249	1.000464	0.249617
	C7866	C	0.528140	0.937048	0.251289
	C7867	C	0.590620	0.999577	0.250658
	C7868	C	0.531288	0.992958	0.416497
	C7869	C	0.595297	0.942937	0.416793
	C7870	C	0.538371	0.994557	-0.082802
	C7871	C	0.602481	0.944154	0.083972
	C7872	C	0.538340	0.994473	0.416921
	C7873	C	0.602344	0.945371	0.416153
	C7874	C	0.531295	0.993189	-0.082816
	C7875	C	0.595436	0.941756	0.084195
	C7876	C	0.539024	0.937545	0.167806
	C7877	C	0.601459	0.999883	0.165746
	C7878	C	0.531874	0.937405	0.335613
	C7879	C	0.594398	1.000435	0.334375
	C7880	C	0.531929	0.937159	0.167556
	C7881	C	0.594368	0.999331	0.166296
	C7882	C	0.538973	0.937730	0.335816
	C7883	C	0.601489	1.000979	0.333860
	N7884	N	0.509092	0.999975	0.451793
	N7885	N	0.573162	0.948624	0.453323
	N7886	N	0.560468	0.986661	0.051103
	N7887	N	0.624695	0.945097	0.047577
	N7888	N	0.560439	0.987096	0.454026
	N7889	N	0.624577	0.944651	0.449060
	N7890	N	0.509125	0.999784	0.049286
	N7891	N	0.573281	0.948720	0.050796
	N7892	N	0.560888	0.948357	0.203845
	N7893	N	0.623340	1.011173	0.199687
	N7894	N	0.510148	0.924822	0.298570
	N7895	N	0.572665	0.987211	0.300713
	N7896	N	0.510173	0.924897	0.201341
	N7897	N	0.572623	0.987372	0.203568
	N7898	N	0.560854	0.948530	0.301341
	N7899	N	0.623391	1.010832	0.297384
	H7900	H	0.516850	0.993443	0.849150
	H7901	H	0.580888	0.942193	0.849048
	H7902	H	0.552747	0.993353	0.653789
	H7903	H	0.616862	0.948894	0.650715
	H7904	H	0.552917	0.993579	0.849838
	H7905	H	0.616745	0.948119	0.846541
	H7906	H	0.516704	0.993610	0.652968
	H7907	H	0.580920	0.942865	0.653629
	H7908	H	0.553510	0.941096	0.599575
	H7909	H	0.615782	1.005028	0.596477
	H7910	H	0.517464	0.933155	0.902065
	H7911	H	0.580178	0.995176	0.903224
	H7912	H	0.517591	0.932524	0.598024
	H7913	H	0.579951	0.996088	0.598884
	H7914	H	0.553435	0.941521	0.904665
	H7915	H	0.616060	1.003152	0.900539
	H7916	H	0.528617	0.992426	1.152534
	H7917	H	0.592717	0.942818	0.850311
	H7918	H	0.540937	0.995115	0.652880
	H7919	H	0.605126	0.944234	0.649878
	H7920	H	0.540983	0.994723	1.153046
	H7921	H	0.605041	0.946926	0.849759
	H7922	H	0.528548	0.993117	0.652087
	H7923	H	0.592783	0.940073	0.651242
	H7924	H	0.541746	0.938760	0.600102
	H7925	H	0.604138	0.999519	0.598884
	H7926	H	0.529261	0.936238	0.902397
	H7927	H	0.591794	1.000783	0.900994
	H7928	H	0.529313	0.937900	0.599427
	H7929	H	0.591724	0.998201	0.599762
	H7930	H	0.541675	0.937103	0.902815
	H7931	H	0.604246	1.002155	0.899825
	Co7932	Co	0.629259	1.030823	0.623260
	Co7933	Co	0.566808	0.967782	0.627272
	Co7934	Co	0.504325	0.905340	0.874710
	Co7935	Co	0.566865	0.967580	0.877568
	C7936	C	0.515649	0.994956	0.923389
	C7937	C	0.579740	0.943610	0.923838
	C7938	C	0.553937	0.992204	0.580040
	C7939	C	0.618044	0.947731	0.576421
	C7940	C	0.554069	0.992209	0.924533
	C7941	C	0.618043	0.947367	0.921297
	C7942	C	0.515586	0.995018	0.578355
	C7943	C	0.579720	0.943935	0.579127
	C7944	C	0.554634	0.942584	0.674371
	C7945	C	0.617008	1.005946	0.670610
	C7946	C	0.516402	0.931378	0.827737
	C7947	C	0.578966	0.993642	0.828802
	C7948	C	0.516455	0.931168	0.672505
	C7949	C	0.578869	0.994123	0.673381
	C7950	C	0.554594	0.942754	0.829792
	C7951	C	0.617148	1.005072	0.825837
	C7952	C	0.520049	0.992344	1.001118
	C7953	C	0.584096	0.941013	0.501205
	C7954	C	0.549627	0.994978	1.001759
	C7955	C	0.613555	0.948315	0.499015
	C7956	C	0.550285	0.939510	0.751916
	C7957	C	0.612743	1.002304	0.748847
	C7958	C	0.520714	0.934919	0.750405
	C7959	C	0.583214	0.997654	0.751006
	C7960	C	0.527537	0.992281	1.001201
	C7961	C	0.591584	0.941125	0.500757
	C7962	C	0.542118	0.995400	1.001386
	C7963	C	0.606111	0.946304	0.499560
	C7964	C	0.542806	0.937861	0.751446
	C7965	C	0.605277	1.000556	0.749492
	C7966	C	0.528151	0.937072	0.750727
	C7967	C	0.590654	0.999650	0.750483
	C7968	C	0.531274	0.993050	1.085371
	C7969	C	0.595380	0.943096	0.916829
	C7970	C	0.538296	0.994576	0.585673
	C7971	C	0.602431	0.943926	0.583466
	C7972	C	0.538342	0.994499	1.085475
	C7973	C	0.602412	0.945563	0.916482
	C7974	C	0.531227	0.993219	0.585109
	C7975	C	0.595386	0.941517	0.584197
	C7976	C	0.539054	0.938191	0.666981
	C7977	C	0.601484	0.999666	0.665722
	C7978	C	0.531913	0.936856	0.835171
	C7979	C	0.594434	1.000636	0.834027
	C7980	C	0.531957	0.937698	0.666724
	C7981	C	0.594387	0.999138	0.666258
	C7982	C	0.539012	0.937378	0.835622
	C7983	C	0.601536	1.001028	0.833625
	N7984	N	0.509159	0.999884	0.952044
	N7985	N	0.573267	0.948677	0.953302
	N7986	N	0.560416	0.986999	0.551403
	N7987	N	0.624625	0.945086	0.547171
	N7988	N	0.560494	0.986708	0.953712
	N7989	N	0.624637	0.944886	0.949469
	N7990	N	0.509101	1.000002	0.549633
	N7991	N	0.573224	0.948902	0.550739
	N7992	N	0.560947	0.948301	0.703688
	N7993	N	0.623348	1.011432	0.699143
	N7994	N	0.510160	0.924992	0.798643
	N7995	N	0.572712	0.987197	0.800213
	N7996	N	0.510194	0.924855	0.701019
	N7997	N	0.572657	0.987456	0.703077
	N7998	N	0.560918	0.948386	0.800947
	N7999	N	0.623437	1.010923	0.796251
	H8000	H	0.641764	0.118701	0.345968
	H8001	H	0.705855	0.067807	0.345504
	H8002	H	0.677834	0.118650	0.150324
	H8003	H	0.741814	0.073418	0.149444
	H8004	H	0.677809	0.118882	0.345678
	H8005	H	0.741846	0.073414	0.345504
	H8006	H	0.641712	0.119314	0.150562
	H8007	H	0.705827	0.067530	0.150037
	H8008	H	0.678390	0.066237	0.096273
	H8009	H	0.740996	0.128612	0.096359
	H8010	H	0.642468	0.057900	0.400797
	H8011	H	0.704928	0.120812	0.399781
	H8012	H	0.642435	0.058281	0.096568
	H8013	H	0.704991	0.120280	0.094644
	H8014	H	0.678389	0.066650	0.400844
	H8015	H	0.740815	0.129567	0.401012
	H8016	H	0.653567	0.118317	0.347450
	H8017	H	0.717760	0.066598	0.347258
	H8018	H	0.665930	0.119508	0.150100
	H8019	H	0.729954	0.071070	0.148197
	H8020	H	0.665911	0.120707	0.346641
	H8021	H	0.730090	0.070572	0.347735
	H8022	H	0.653589	0.117405	0.149927
	H8023	H	0.717668	0.067196	0.148432
	H8024	H	0.666619	0.062969	0.097152
	H8025	H	0.729149	0.125775	0.096704
	H8026	H	0.654239	0.062649	0.399977
	H8027	H	0.716711	0.124742	0.398625
	H8028	H	0.654219	0.062151	0.097121
	H8029	H	0.716770	0.124944	0.096161
	H8030	H	0.666620	0.063782	0.399894
	H8031	H	0.729082	0.125651	0.399345
	Co8032	Co	0.754295	0.155186	0.123652
	Co8033	Co	0.691790	0.092609	0.122142
	Co8034	Co	0.629273	0.030315	0.373720
	Co8035	Co	0.691817	0.092962	0.373233
	C8036	C	0.640601	0.119955	0.420776
	C8037	C	0.704713	0.069031	0.420403
	C8038	C	0.678955	0.117196	0.075609
	C8039	C	0.743026	0.072472	0.074901
	C8040	C	0.678979	0.117479	0.420170
	C8041	C	0.743058	0.072535	0.420621
	C8042	C	0.640561	0.120359	0.075887
	C8043	C	0.704696	0.068810	0.075053
	C8044	C	0.679539	0.067866	0.170614
	C8045	C	0.742070	0.130238	0.170738
	C8046	C	0.641389	0.056498	0.326223
	C8047	C	0.703875	0.119207	0.325078
	C8048	C	0.641394	0.056552	0.171121
	C8049	C	0.703914	0.118732	0.169645
	C8050	C	0.679523	0.068176	0.325974
	C8051	C	0.741982	0.130781	0.326413
	C8052	C	0.644998	0.117414	0.498718
	C8053	C	0.709096	0.066175	-0.002698
	C8054	C	0.674583	0.120234	0.497852
	C8055	C	0.738582	0.073420	-0.002767
	C8056	C	0.675211	0.064780	0.248384
	C8057	C	0.737738	0.127293	0.248428
	C8058	C	0.645666	0.060330	0.248665
	C8059	C	0.708157	0.122662	0.247323
	C8060	C	0.652497	0.117331	0.498842
	C8061	C	0.716585	0.066352	-0.002469
	C8062	C	0.667071	0.120475	0.498171
	C8063	C	0.731097	0.071518	-0.002686
	C8064	C	0.667721	0.063083	0.248366
	C8065	C	0.730254	0.125494	0.248156
	C8066	C	0.653103	0.062459	0.248542
	C8067	C	0.715609	0.124884	0.247567
	C8068	C	0.656228	0.118527	0.414502
	C8069	C	0.720397	0.067357	0.414298
	C8070	C	0.663273	0.119256	0.082778
	C8071	C	0.727343	0.070091	0.081291
	C8072	C	0.663292	0.119905	0.414042
	C8073	C	0.727423	0.069826	0.414499
	C8074	C	0.656206	0.117895	0.082532
	C8075	C	0.720317	0.067731	0.081538
	C8076	C	0.663954	0.062861	0.164158
	C8077	C	0.726483	0.125563	0.163823
	C8078	C	0.656885	0.062836	0.332713
	C8079	C	0.719373	0.125016	0.331682
	C8080	C	0.656867	0.062597	0.164230
	C8081	C	0.719403	0.125193	0.163501
	C8082	C	0.663966	0.063178	0.332793
	C8083	C	0.726452	0.125389	0.332103
	N8084	N	0.634120	0.125070	0.449686
	N8085	N	0.698225	0.073998	0.448982
	N8086	N	0.685416	0.111886	0.046438
	N8087	N	0.749639	0.070045	0.046372
	N8088	N	0.685440	0.112220	0.448878
	N8089	N	0.749668	0.070144	0.449039
	N8090	N	0.634082	0.125325	0.047097
	N8091	N	0.698203	0.073855	0.045912
	N8092	N	0.685859	0.073467	0.199303
	N8093	N	0.748368	0.136102	0.200128
	N8094	N	0.635147	0.049858	0.297258
	N8095	N	0.697639	0.112559	0.296067
	N8096	N	0.635143	0.049966	0.199942
	N8097	N	0.697664	0.112239	0.198802
	N8098	N	0.685825	0.073783	0.296834
	N8099	N	0.748309	0.136455	0.297756
	H8100	H	0.641677	0.118584	0.846429
	H8101	H	0.705905	0.067807	0.845138
	H8102	H	0.677869	0.118936	0.650162
	H8103	H	0.741847	0.073404	0.650722
	H8104	H	0.677705	0.118416	0.845850
	H8105	H	0.741836	0.073212	0.845268
	H8106	H	0.641731	0.118913	0.650990
	H8107	H	0.705857	0.067464	0.650084
	H8108	H	0.678375	0.066907	0.594829
	H8109	H	0.740993	0.128999	0.595652
	H8110	H	0.642624	0.057374	0.901110
	H8111	H	0.705027	0.120543	0.900141
	H8112	H	0.642497	0.058088	0.596678
	H8113	H	0.705074	0.120628	0.596230
	H8114	H	0.678508	0.066198	0.899887
	H8115	H	0.740955	0.129173	0.901025
	H8116	H	0.653564	0.118213	0.846883
	H8117	H	0.717723	0.066022	0.846765
	H8118	H	0.666007	0.119490	0.649583
	H8119	H	0.730040	0.070604	0.648955
	H8120	H	0.665924	0.120136	0.846762
	H8121	H	0.730032	0.070046	0.846663
	H8122	H	0.653630	0.117077	0.650183
	H8123	H	0.717732	0.066843	0.648637
	H8124	H	0.666729	0.062072	0.596576
	H8125	H	0.729209	0.125267	0.597412
	H8126	H	0.654300	0.062968	0.899251
	H8127	H	0.716783	0.124794	0.899652
	H8128	H	0.654326	0.060870	0.597067
	H8129	H	0.716837	0.124194	0.597303
	H8130	H	0.666671	0.064033	0.898935
	H8131	H	0.729166	0.125574	0.899682
	Co8132	Co	0.754280	0.155558	0.623716
	Co8133	Co	0.691841	0.092987	0.622544
	Co8134	Co	0.629402	0.029847	0.873437
	Co8135	Co	0.691818	0.092882	0.872529
	C8136	C	0.640536	0.119968	0.920781
	C8137	C	0.704716	0.068891	0.919493
	C8138	C	0.679001	0.117391	0.575249
	C8139	C	0.743059	0.072500	0.575895
	C8140	C	0.678907	0.117067	0.920309
	C8141	C	0.743043	0.072417	0.919731
	C8142	C	0.640590	0.120213	0.576291
	C8143	C	0.704718	0.068927	0.575521
	C8144	C	0.679545	0.068075	0.670014
	C8145	C	0.742097	0.130482	0.671106
	C8146	C	0.641489	0.055933	0.826405
	C8147	C	0.703920	0.118983	0.825672
	C8148	C	0.641398	0.056576	0.671148
	C8149	C	0.703938	0.118985	0.670479
	C8150	C	0.679597	0.067716	0.825298
	C8151	C	0.742086	0.130512	0.826240
	C8152	C	0.644953	0.117456	0.998327
	C8153	C	0.709108	0.066204	0.497763
	C8154	C	0.674546	0.119931	0.998168
	C8155	C	0.738629	0.073401	0.498126
	C8156	C	0.675266	0.064716	0.747689
	C8157	C	0.737777	0.127246	0.748605
	C8158	C	0.645726	0.059951	0.748515
	C8159	C	0.708217	0.122676	0.748152
	C8160	C	0.652448	0.117265	0.998246
	C8161	C	0.716624	0.066310	0.497888
	C8162	C	0.667031	0.120240	0.998328
	C8163	C	0.731147	0.071455	0.498227
	C8164	C	0.667806	0.062972	0.747746
	C8165	C	0.730316	0.125358	0.748508
	C8166	C	0.653173	0.062148	0.748075
	C8167	C	0.715682	0.124684	0.748403
	C8168	C	0.656209	0.118322	0.914056
	C8169	C	0.720349	0.067077	0.913641
	C8170	C	0.663331	0.119282	0.582625
	C8171	C	0.727402	0.069925	0.582034
	C8172	C	0.663259	0.119669	0.913979
	C8173	C	0.727378	0.069534	0.913537
	C8174	C	0.656268	0.117797	0.582941
	C8175	C	0.720378	0.067576	0.581818
	C8176	C	0.664050	0.062224	0.663652
	C8177	C	0.726544	0.125160	0.664400
	C8178	C	0.656934	0.062920	0.831890
	C8179	C	0.719440	0.124996	0.832518
	C8180	C	0.656966	0.061736	0.664114
	C8181	C	0.719461	0.124727	0.664424
	C8182	C	0.664019	0.063329	0.831811
	C8183	C	0.726528	0.125360	0.832580
	N8184	N	0.634071	0.125165	0.949539
	N8185	N	0.698216	0.073862	0.948310
	N8186	N	0.685457	0.112168	0.546364
	N8187	N	0.749677	0.070139	0.547141
	N8188	N	0.685389	0.111799	0.948935
	N8189	N	0.749636	0.070093	0.948224
	N8190	N	0.634109	0.125254	0.547080
	N8191	N	0.698226	0.074017	0.546633
	N8192	N	0.685868	0.073687	0.698736
	N8193	N	0.748417	0.136156	0.700006
	N8194	N	0.635217	0.049643	0.797711
	N8195	N	0.697671	0.112544	0.796434
	N8196	N	0.635167	0.049997	0.700534
	N8197	N	0.697672	0.112607	0.699298
	N8198	N	0.685903	0.073493	0.796117
	N8199	N	0.748405	0.136235	0.797440
	H8200	H	0.640006	0.230700	0.346387
	H8201	H	0.704250	0.180777	0.345476
	H8202	H	0.676007	0.231717	0.149737
	H8203	H	0.740227	0.180914	0.151201
	H8204	H	0.676025	0.231018	0.344721
	H8205	H	0.740309	0.181487	0.345855
	H8206	H	0.639895	0.231484	0.150674
	H8207	H	0.704249	0.181224	0.149551
	H8208	H	0.676818	0.179050	0.095263
	H8209	H	0.739480	0.240718	0.097315
	H8210	H	0.640905	0.170869	0.401076
	H8211	H	0.703323	0.233751	0.400110
	H8212	H	0.640873	0.171794	0.096664
	H8213	H	0.703352	0.233911	0.095520
	H8214	H	0.676791	0.179095	0.400052
	H8215	H	0.739200	0.242425	0.401762
	H8216	H	0.651838	0.230525	0.346910
	H8217	H	0.716064	0.180089	0.346646
	H8218	H	0.664209	0.231705	0.148909
	H8219	H	0.728435	0.183122	0.149088
	H8220	H	0.664207	0.233004	0.346672
	H8221	H	0.728438	0.182534	0.346703
	H8222	H	0.651816	0.229712	0.149633
	H8223	H	0.716077	0.180705	0.148819
	H8224	H	0.665024	0.175059	0.096218
	H8225	H	0.727546	0.238858	0.096765
	H8226	H	0.652605	0.175381	0.399186
	H8227	H	0.715142	0.236675	0.399609
	H8228	H	0.652585	0.174100	0.096873
	H8229	H	0.715179	0.238268	0.096378
	H8230	H	0.665029	0.176308	0.399258
	H8231	H	0.727522	0.237113	0.400098
	Co8232	Co	0.752700	0.268219	0.124266
	Co8233	Co	0.690118	0.206557	0.122527
	Co8234	Co	0.627608	0.143474	0.373048
	Co8235	Co	0.690126	0.206208	0.372217
	C8236	C	0.638846	0.232177	0.420984
	C8237	C	0.703015	0.182313	0.420003
	C8238	C	0.677191	0.230251	0.074956
	C8239	C	0.741447	0.179725	0.076781
	C8240	C	0.677169	0.230109	0.419582
	C8241	C	0.741489	0.180027	0.420532
	C8242	C	0.638754	0.232692	0.075816
	C8243	C	0.703057	0.182704	0.074995
	C8244	C	0.677968	0.180668	0.169701
	C8245	C	0.740526	0.242555	0.171892
	C8246	C	0.639764	0.169341	0.326386
	C8247	C	0.702259	0.232087	0.325283
	C8248	C	0.639717	0.169835	0.171020
	C8249	C	0.702262	0.232356	0.170312
	C8250	C	0.677944	0.180777	0.325271
	C8251	C	0.740387	0.243479	0.327118
	C8252	C	0.643237	0.229721	0.498700
	C8253	C	0.707500	0.180126	-0.002794
	C8254	C	0.672836	0.233078	0.497681
	C8255	C	0.737070	0.182779	-0.001460
	C8256	C	0.673615	0.177236	0.247425
	C8257	C	0.736146	0.239577	0.249206
	C8258	C	0.644056	0.173085	0.248469
	C8259	C	0.706566	0.235793	0.247851
	C8260	C	0.650772	0.229750	0.498643
	C8261	C	0.715004	0.179863	-0.002527
	C8262	C	0.665332	0.233096	0.498277
	C8263	C	0.729583	0.183054	-0.001957
	C8264	C	0.666158	0.175307	0.247578
	C8265	C	0.728685	0.237756	0.248445
	C8266	C	0.651511	0.174804	0.247994
	C8267	C	0.714021	0.237611	0.248034
	C8268	C	0.654501	0.230819	0.414016
	C8269	C	0.718714	0.180450	0.413566
	C8270	C	0.661534	0.231467	0.081856
	C8271	C	0.725804	0.182461	0.082083
	C8272	C	0.661555	0.232457	0.413788
	C8273	C	0.725793	0.181922	0.413955
	C8274	C	0.654458	0.230113	0.082470
	C8275	C	0.718733	0.180989	0.081787
	C8276	C	0.662375	0.174972	0.163636
	C8277	C	0.724914	0.238157	0.164027
	C8278	C	0.655292	0.175286	0.332156
	C8279	C	0.717789	0.237138	0.332375
	C8280	C	0.655267	0.174606	0.163680
	C8281	C	0.717819	0.237970	0.163897
	C8282	C	0.662395	0.175579	0.331956
	C8283	C	0.724881	0.237246	0.332534
	N8284	N	0.632340	0.237185	0.449815
	N8285	N	0.696564	0.187306	0.448924
	N8286	N	0.683704	0.225457	0.046193
	N8287	N	0.747908	0.174397	0.047750
	N8288	N	0.683675	0.225147	0.448182
	N8289	N	0.747945	0.174827	0.449970
	N8290	N	0.632299	0.237721	0.046999
	N8291	N	0.696588	0.187750	0.045923
	N8292	N	0.684231	0.186872	0.198665
	N8293	N	0.746781	0.248910	0.201165
	N8294	N	0.633489	0.163201	0.297223
	N8295	N	0.696001	0.225884	0.296542
	N8296	N	0.633460	0.163527	0.200042
	N8297	N	0.696023	0.225898	0.199096
	N8298	N	0.684237	0.186847	0.296042
	N8299	N	0.746690	0.249471	0.298792
	H8300	H	0.639894	0.231048	0.846201
	H8301	H	0.704292	0.181642	0.844899
	H8302	H	0.676203	0.232326	0.649491
	H8303	H	0.740241	0.181177	0.651298
	H8304	H	0.676053	0.231323	0.844920
	H8305	H	0.740372	0.181692	0.846479
	H8306	H	0.639971	0.231315	0.650503
	H8307	H	0.704252	0.181150	0.649389
	H8308	H	0.677022	0.179185	0.596063
	H8309	H	0.739501	0.241391	0.597598
	H8310	H	0.640997	0.171417	0.900433
	H8311	H	0.703421	0.234443	0.899951
	H8312	H	0.641022	0.171440	0.596313
	H8313	H	0.703567	0.233661	0.595259
	H8314	H	0.677067	0.178981	0.899827
	H8315	H	0.739439	0.242045	0.902083
	H8316	H	0.651771	0.230232	0.846824
	H8317	H	0.716166	0.179676	0.846221
	H8318	H	0.664265	0.232415	0.649750
	H8319	H	0.728367	0.182168	0.649474
	H8320	H	0.664103	0.232349	0.846204
	H8321	H	0.728520	0.182101	0.846654
	H8322	H	0.651892	0.230109	0.649964
	H8323	H	0.716041	0.179796	0.649199
	H8324	H	0.665235	0.174861	0.596564
	H8325	H	0.727639	0.237610	0.900619
	H8326	H	0.652792	0.174909	0.899565
	H8327	H	0.715335	0.237489	0.596999
	H8328	H	0.652787	0.174550	0.596807
	H8329	H	0.715219	0.237131	0.900203
	H8330	H	0.665185	0.175244	0.899560
	H8331	H	0.727732	0.237925	0.598234
	Co8332	Co	0.752653	0.269301	0.624549
	Co8333	Co	0.690173	0.206796	0.622186
	Co8334	Co	0.627686	0.144155	0.873183
	Co8335	Co	0.690194	0.206958	0.872563
	C8336	C	0.638748	0.232212	0.920841
	C8337	C	0.703095	0.182970	0.919488
	C8338	C	0.677256	0.230717	0.574843
	C8339	C	0.741446	0.179913	0.576535
	C8340	C	0.677197	0.230157	0.919411
	C8341	C	0.741518	0.180102	0.920964
	C8342	C	0.638836	0.232476	0.576055
	C8343	C	0.703032	0.182488	0.575448
	C8344	C	0.678073	0.180726	0.670723
	C8345	C	0.740596	0.243165	0.672308
	C8346	C	0.639905	0.169788	0.825810
	C8347	C	0.702335	0.232574	0.825309
	C8348	C	0.639905	0.169762	0.670664
	C8349	C	0.702416	0.232168	0.669923
	C8350	C	0.678105	0.180584	0.825377
	C8351	C	0.740561	0.243518	0.827530
	C8352	C	0.643158	0.229696	0.998495
	C8353	C	0.707464	0.179682	0.497522
	C8354	C	0.672778	0.232606	0.997176
	C8355	C	0.737017	0.182703	0.498195
	C8356	C	0.673820	0.176920	0.748100
	C8357	C	0.736278	0.239756	0.750026
	C8358	C	0.644187	0.173278	0.748134
	C8359	C	0.706667	0.235736	0.748081
	C8360	C	0.650668	0.229450	0.998405
	C8361	C	0.714953	0.179535	0.497561
	C8362	C	0.665276	0.232489	0.997432
	C8363	C	0.729536	0.182780	0.497991
	C8364	C	0.666346	0.175006	0.747907
	C8365	C	0.728789	0.237714	0.749594
	C8366	C	0.651685	0.174885	0.748145
	C8367	C	0.714143	0.237329	0.748609
	C8368	C	0.654427	0.230427	0.913909
	C8369	C	0.718789	0.180415	0.913562
	C8370	C	0.661588	0.232011	0.582780
	C8371	C	0.725768	0.181899	0.582207
	C8372	C	0.661487	0.231864	0.913443
	C8373	C	0.725858	0.181872	0.913845
	C8374	C	0.654545	0.230582	0.582746
	C8375	C	0.718682	0.180413	0.581987
	C8376	C	0.662558	0.174815	0.663713
	C8377	C	0.724988	0.237512	0.833394
	C8378	C	0.655449	0.174963	0.832354
	C8379	C	0.717964	0.237409	0.664455
	C8380	C	0.655470	0.174678	0.663899
	C8381	C	0.717896	0.237267	0.833097
	C8382	C	0.662539	0.175145	0.832125
	C8383	C	0.725048	0.237648	0.665106
	N8384	N	0.632284	0.237510	0.949420
	N8385	N	0.696623	0.188017	0.948487
	N8386	N	0.683722	0.225536	0.545747
	N8387	N	0.747921	0.174765	0.547446
	N8388	N	0.683698	0.225467	0.948669
	N8389	N	0.747964	0.174682	0.950340
	N8390	N	0.632354	0.237418	0.547135
	N8391	N	0.696573	0.187517	0.546329
	N8392	N	0.684323	0.187219	0.699132
	N8393	N	0.746841	0.249622	0.701368
	N8394	N	0.633621	0.163594	0.796932
	N8395	N	0.696043	0.226517	0.796061
	N8396	N	0.633603	0.163666	0.699744
	N8397	N	0.696088	0.226322	0.698463
	N8398	N	0.684348	0.187162	0.796610
	N8399	N	0.746826	0.249726	0.798410
	H8400	H	0.638152	0.343265	0.345449
	H8401	H	0.702445	0.293849	0.345747
	H8402	H	0.674332	0.344008	0.149544
	H8403	H	0.738534	0.293327	0.152055
	H8404	H	0.674220	0.344146	0.344907
	H8405	H	0.738527	0.294466	0.347622
	H8406	H	0.638198	0.343657	0.150332
	H8407	H	0.702450	0.293286	0.150329
	H8408	H	0.675100	0.291274	0.095185
	H8409	H	0.737608	0.353463	0.097966
	H8410	H	0.639232	0.282941	0.400040
	H8411	H	0.701479	0.346298	0.399098
	H8412	H	0.639086	0.284236	0.096008
	H8413	H	0.701596	0.345927	0.095975
	H8414	H	0.675105	0.291738	0.399223
	H8415	H	0.737426	0.354576	0.402024
	H8416	H	0.649948	0.342899	0.345807
	H8417	H	0.714312	0.291724	0.347100
	H8418	H	0.662438	0.344935	-0.153306
	H8419	H	0.726807	0.294936	-0.152912
	H8420	H	0.662372	0.345316	0.345743
	H8421	H	0.726657	0.293961	0.347492
	H8422	H	0.650027	0.342567	-0.152996
	H8423	H	0.714428	0.292314	-0.153691
	H8424	H	0.663316	0.287661	0.095801
	H8425	H	0.725804	0.351350	0.097668
	H8426	H	0.650944	0.287851	0.399323
	H8427	H	0.713317	0.348780	0.399558
	H8428	H	0.650909	0.286560	0.096241
	H8429	H	0.713398	0.350661	0.096715
	H8430	H	0.663329	0.288311	0.399348
	H8431	H	0.725752	0.349264	0.400633
	Co8432	Co	0.750878	0.380956	0.125329
	Co8433	Co	0.688383	0.318781	0.122037
	Co8434	Co	0.625927	0.255851	0.372902
	Co8435	Co	0.688314	0.318952	0.372055
	C8436	C	0.636971	0.344833	0.420716
	C8437	C	0.701263	0.295099	0.420156
	C8438	C	0.675478	0.342488	0.075216
	C8439	C	0.739724	0.292249	0.077807
	C8440	C	0.675417	0.342856	0.419785
	C8441	C	0.739664	0.292912	0.421987
	C8442	C	0.637030	0.344756	0.075702
	C8443	C	0.701324	0.294920	0.075544
	C8444	C	0.676217	0.292979	0.169520
	C8445	C	0.738684	0.355273	0.172418
	C8446	C	0.638061	0.281745	0.325704
	C8447	C	0.700448	0.344613	0.325063
	C8448	C	0.637998	0.282290	0.170373
	C8449	C	0.700502	0.344590	0.170081
	C8450	C	0.676206	0.293202	0.324625
	C8451	C	0.738587	0.355792	0.327391
	C8452	C	0.641419	0.342368	0.498070
	C8453	C	0.705754	0.292372	-0.002089
	C8454	C	0.670986	0.345568	0.497364
	C8455	C	0.735342	0.295356	-0.000225
	C8456	C	0.671907	0.289604	0.247138
	C8457	C	0.734358	0.351980	0.249611
	C8458	C	0.642348	0.285519	0.247837
	C8459	C	0.704765	0.348031	0.247842
	C8460	C	0.648914	0.342327	0.497393
	C8461	C	0.713254	0.292371	-0.002145
	C8462	C	0.663484	0.345637	0.497300
	C8463	C	0.727843	0.295524	-0.001089
	C8464	C	0.664446	0.287756	0.247441
	C8465	C	0.726888	0.350102	0.249219
	C8466	C	0.649803	0.287351	0.247730
	C8467	C	0.712235	0.349837	0.248184
	C8468	C	0.652627	0.343346	0.412899
	C8469	C	0.716947	0.292522	0.414466
	C8470	C	0.659779	0.344346	-0.086194
	C8471	C	0.724131	0.294542	-0.085828
	C8472	C	0.659706	0.344865	0.413037
	C8473	C	0.724001	0.293998	0.414695
	C8474	C	0.652700	0.342977	-0.085943
	C8475	C	0.717055	0.293082	-0.086226
	C8476	C	0.660665	0.287409	0.163156
	C8477	C	0.723121	0.350661	0.164721
	C8478	C	0.653579	0.287771	0.331833
	C8479	C	0.715999	0.349369	0.332672
	C8480	C	0.653568	0.287111	0.163498
	C8481	C	0.716032	0.350404	0.164031
	C8482	C	0.660675	0.287929	0.331843
	C8483	C	0.723096	0.349573	0.333317
	N8484	N	0.630503	0.349803	0.449521
	N8485	N	0.694769	0.300246	0.448674
	N8486	N	0.681949	0.337670	0.045913
	N8487	N	0.746188	0.287346	0.049157
	N8488	N	0.681903	0.337841	0.448647
	N8489	N	0.746151	0.288040	0.450969
	N8490	N	0.630547	0.349798	0.046731
	N8491	N	0.694832	0.299929	0.046514
	N8492	N	0.682485	0.299221	0.198257
	N8493	N	0.744949	0.361638	0.201775
	N8494	N	0.631787	0.275607	0.296801
	N8495	N	0.694174	0.338496	0.295904
	N8496	N	0.631736	0.275984	0.199506
	N8497	N	0.694209	0.338506	0.198335
	N8498	N	0.682474	0.299345	0.295606
	N8499	N	0.744880	0.361939	0.299074
	H8500	H	0.638224	0.343055	0.846289
	H8501	H	0.702533	0.293684	0.846034
	H8502	H	0.674243	0.344293	0.650075
	H8503	H	0.738422	0.293628	0.652167
	H8504	H	0.674206	0.343147	0.845464
	H8505	H	0.738653	0.294515	0.847681
	H8506	H	0.638153	0.343957	0.650589
	H8507	H	0.702331	0.293564	0.649596
	H8508	H	0.675102	0.291903	0.595731
	H8509	H	0.737673	0.354001	0.597864
	H8510	H	0.639187	0.283241	0.900878
	H8511	H	0.701666	0.346283	0.900634
	H8512	H	0.639158	0.283909	0.595675
	H8513	H	0.701718	0.346034	0.595233
	H8514	H	0.675254	0.290915	0.899938
	H8515	H	0.737583	0.354224	0.901095
	H8516	H	0.650089	0.342184	1.149697
	H8517	H	0.714319	0.293248	1.149491
	H8518	H	0.662390	0.344828	0.649193
	H8519	H	0.726563	0.295361	0.650798
	H8520	H	0.662442	0.344355	1.149077
	H8521	H	0.726633	0.295640	1.150717
	H8522	H	0.650043	0.342510	0.648990
	H8523	H	0.714200	0.293234	0.649970
	H8524	H	0.663328	0.287838	0.596127
	H8525	H	0.725929	0.350197	0.597477
	H8526	H	0.650940	0.287352	0.899696
	H8527	H	0.713404	0.349680	0.899787
	H8528	H	0.650927	0.287104	0.596957
	H8529	H	0.713478	0.349708	0.596625
	H8530	H	0.663350	0.287851	0.899735
	H8531	H	0.725828	0.350423	0.900180
	Co8532	Co	0.750865	0.381613	0.625495
	Co8533	Co	0.688341	0.319186	0.622313
	Co8534	Co	0.625871	0.256406	0.872807
	Co8535	Co	0.688405	0.318683	0.872572
	C8536	C	0.637041	0.344553	0.920412
	C8537	C	0.701342	0.295079	0.920300
	C8538	C	0.675418	0.342918	0.575059
	C8539	C	0.739627	0.292621	0.577343
	C8540	C	0.675418	0.342027	0.919655
	C8541	C	0.739815	0.293028	0.922440
	C8542	C	0.636991	0.345064	0.575814
	C8543	C	0.701202	0.295059	0.575061
	C8544	C	0.676238	0.293245	0.670026
	C8545	C	0.738767	0.355711	0.672392
	C8546	C	0.638069	0.281928	0.825947
	C8547	C	0.700544	0.344602	0.825402
	C8548	C	0.638062	0.282161	0.670569
	C8549	C	0.700577	0.344581	0.670210
	C8550	C	0.676297	0.292711	0.825230
	C8551	C	0.738718	0.355817	0.827064
	C8552	C	0.641441	0.342048	0.998138
	C8553	C	0.705630	0.292320	0.497960
	C8554	C	0.671022	0.344739	0.997667
	C8555	C	0.735244	0.295240	0.499620
	C8556	C	0.671956	0.289522	0.747615
	C8557	C	0.734440	0.352280	0.749494
	C8558	C	0.642366	0.285501	0.748201
	C8559	C	0.704872	0.348010	0.748063
	C8560	C	0.648938	0.341958	0.998208
	C8561	C	0.713146	0.292083	0.498600
	C8562	C	0.663531	0.344890	0.997819
	C8563	C	0.727739	0.295198	0.499223
	C8564	C	0.664483	0.287767	0.747737
	C8565	C	0.726961	0.350331	0.748944
	C8566	C	0.649834	0.287403	0.748232
	C8567	C	0.712333	0.349796	0.748263
	C8568	C	0.652716	0.342682	1.082317
	C8569	C	0.716984	0.293536	1.082415
	C8570	C	0.659744	0.344533	0.581675
	C8571	C	0.723946	0.294692	0.583341
	C8572	C	0.659794	0.343958	1.081964
	C8573	C	0.724052	0.294939	1.083078
	C8574	C	0.652679	0.343056	0.581528
	C8575	C	0.716885	0.293251	0.582986
	C8576	C	0.660695	0.287586	0.663603
	C8577	C	0.723219	0.350111	0.664304
	C8578	C	0.653617	0.287549	0.832612
	C8579	C	0.716070	0.349947	0.832675
	C8580	C	0.653611	0.287306	0.663873
	C8581	C	0.716125	0.349800	0.664010
	C8582	C	0.660710	0.287792	0.832282
	C8583	C	0.723158	0.350270	0.832976
	N8584	N	0.630547	0.349573	0.949205
	N8585	N	0.694835	0.299999	0.949200
	N8586	N	0.681905	0.337887	0.546064
	N8587	N	0.746129	0.287871	0.548607
	N8588	N	0.681913	0.337419	0.948451
	N8589	N	0.746259	0.287833	0.951651
	N8590	N	0.630528	0.349975	0.546876
	N8591	N	0.694743	0.300253	0.545830
	N8592	N	0.682516	0.299371	0.698462
	N8593	N	0.745035	0.361859	0.701661
	N8594	N	0.631773	0.275859	0.796797
	N8595	N	0.694263	0.338457	0.796437
	N8596	N	0.631787	0.275991	0.699260
	N8597	N	0.694270	0.338490	0.699190
	N8598	N	0.682552	0.299124	0.796028
	N8599	N	0.744993	0.361934	0.798820
	H8600	H	0.636478	0.455733	0.345749
	H8601	H	0.700803	0.406616	0.345487
	H8602	H	0.672578	0.456377	0.149829
	H8603	H	0.736765	0.405830	0.152006
	H8604	H	0.672587	0.456561	0.345303
	H8605	H	0.736808	0.406881	0.348097
	H8606	H	0.636452	0.456063	0.150285
	H8607	H	0.700660	0.406195	0.150588
	H8608	H	0.673407	0.403962	0.094598
	H8609	H	0.735991	0.466342	0.097340
	H8610	H	0.637409	0.395600	0.400830
	H8611	H	0.699874	0.458639	0.400170
	H8612	H	0.637415	0.396052	0.095934
	H8613	H	0.699884	0.458760	0.095655
	H8614	H	0.673462	0.403783	0.399234
	H8615	H	0.735781	0.466491	0.402187
	H8616	H	0.648307	0.455212	0.346414
	H8617	H	0.712616	0.403731	0.347055
	H8618	H	0.660718	0.457425	0.149225
	H8619	H	0.724914	0.407441	0.151267
	H8620	H	0.660673	0.457447	0.345946
	H8621	H	0.724982	0.406215	0.347578
	H8622	H	0.648356	0.455003	0.148851
	H8623	H	0.712567	0.405192	0.151091
	H8624	H	0.661602	0.400199	0.096217
	H8625	H	0.724039	0.462324	0.400123
	H8626	H	0.649277	0.399426	0.399625
	H8627	H	0.711706	0.462606	0.096914
	H8628	H	0.649210	0.399473	0.096644
	H8629	H	0.711651	0.461856	0.399516
	H8630	H	0.661698	0.400478	0.398596
	H8631	H	0.724140	0.463398	0.097867
	Co8632	Co	0.749132	0.493829	0.126456
	Co8633	Co	0.686673	0.431202	0.122236
	Co8634	Co	0.624085	0.368748	0.372746
	Co8635	Co	0.686641	0.431321	0.372169
	C8636	C	0.635298	0.457144	0.420299
	C8637	C	0.699556	0.407568	0.420117
	C8638	C	0.673746	0.455010	0.074773
	C8639	C	0.737975	0.404946	0.077724
	C8640	C	0.673712	0.455155	0.419982
	C8641	C	0.737961	0.405647	0.422449
	C8642	C	0.635309	0.457206	0.075244
	C8643	C	0.699541	0.407293	0.075759
	C8644	C	0.674523	0.405469	0.169005
	C8645	C	0.737021	0.467851	0.172405
	C8646	C	0.636337	0.394188	0.325811
	C8647	C	0.698768	0.457294	0.325475
	C8648	C	0.636339	0.394526	0.170703
	C8649	C	0.698788	0.457153	0.170322
	C8650	C	0.674568	0.405251	0.324357
	C8651	C	0.736919	0.468029	0.327398
	C8652	C	0.639718	0.454790	0.497966
	C8653	C	0.703994	0.404763	-0.001595
	C8654	C	0.669312	0.457815	0.497624
	C8655	C	0.733565	0.407727	0.000055
	C8656	C	0.670254	0.401926	0.247007
	C8657	C	0.732687	0.464459	0.249501
	C8658	C	0.640628	0.397759	0.248470
	C8659	C	0.703057	0.460681	0.247977
	C8660	C	0.647227	0.454783	0.497787
	C8661	C	0.711480	0.404624	-0.001009
	C8662	C	0.661805	0.458001	0.497398
	C8663	C	0.726070	0.407864	-0.000502
	C8664	C	0.662769	0.400067	0.247485
	C8665	C	0.725196	0.462662	0.248965
	C8666	C	0.648106	0.399606	0.248356
	C8667	C	0.710540	0.462401	0.248214
	C8668	C	0.650983	0.455662	0.413559
	C8669	C	0.715238	0.404644	0.414434
	C8670	C	0.658066	0.457035	0.081978
	C8671	C	0.722294	0.406963	0.083762
	C8672	C	0.658038	0.457148	0.413102
	C8673	C	0.722304	0.406170	0.414766
	C8674	C	0.651004	0.455505	0.081682
	C8675	C	0.715216	0.405582	0.083675
	C8676	C	0.658967	0.399969	0.163554
	C8677	C	0.721400	0.462268	0.332877
	C8678	C	0.651928	0.399775	0.332199
	C8679	C	0.714351	0.462688	0.164087
	C8680	C	0.651882	0.399689	0.163842
	C8681	C	0.714319	0.462174	0.332509
	C8682	C	0.659013	0.400125	0.331749
	C8683	C	0.721435	0.462915	0.164693
	N8684	N	0.628797	0.461913	0.449454
	N8685	N	0.693076	0.412500	0.448576
	N8686	N	0.680218	0.449984	0.045928
	N8687	N	0.744445	0.399929	0.049173
	N8688	N	0.680198	0.450076	0.448695
	N8689	N	0.744437	0.400561	0.451801
	N8690	N	0.628831	0.462269	0.046458
	N8691	N	0.693069	0.412267	0.046394
	N8692	N	0.680815	0.411576	0.197897
	N8693	N	0.743276	0.474079	0.202046
	N8694	N	0.630053	0.388120	0.296775
	N8695	N	0.692504	0.450924	0.296499
	N8696	N	0.630052	0.388331	0.199190
	N8697	N	0.692508	0.450885	0.198993
	N8698	N	0.680837	0.411527	0.295186
	N8699	N	0.743225	0.474099	0.299193
	H8700	H	0.636487	0.455951	0.845254
	H8701	H	0.700748	0.406043	0.846359
	H8702	H	0.672584	0.456394	0.649661
	H8703	H	0.736686	0.406213	0.652916
	H8704	H	0.672573	0.455858	0.844824
	H8705	H	0.736829	0.406938	0.848164
	H8706	H	0.636517	0.456082	0.650069
	H8707	H	0.700642	0.405379	0.649444
	H8708	H	0.673314	0.404014	0.594604
	H8709	H	0.735849	0.466725	0.597854
	H8710	H	0.637401	0.395968	0.899363
	H8711	H	0.699833	0.458516	0.899339
	H8712	H	0.637279	0.396349	0.595642
	H8713	H	0.699937	0.458179	0.595612
	H8714	H	0.673366	0.403734	0.899677
	H8715	H	0.735767	0.466228	0.901347
	H8716	H	0.648342	0.455106	0.845945
	H8717	H	0.712607	0.404887	0.847325
	H8718	H	0.660707	0.457368	0.648523
	H8719	H	0.724838	0.408303	0.650606
	H8720	H	0.660722	0.457256	0.845938
	H8721	H	0.725007	0.407279	0.847581
	H8722	H	0.648331	0.455109	0.649125
	H8723	H	0.712473	0.405984	0.650015
	H8724	H	0.661566	0.400345	0.595891
	H8725	H	0.724014	0.463631	0.597209
	H8726	H	0.649144	0.399778	0.898531
	H8727	H	0.711570	0.462027	0.900095
	H8728	H	0.649153	0.399914	0.595935
	H8729	H	0.711622	0.462619	0.596496
	H8730	H	0.661570	0.400421	0.898353
	H8731	H	0.723957	0.462795	0.901103
	Co8732	Co	0.749116	0.493751	0.626162
	Co8733	Co	0.686605	0.430973	0.621962
	Co8734	Co	0.624151	0.368410	0.872803
	Co8735	Co	0.686655	0.430870	0.872556
	C8736	C	0.635327	0.457267	0.920028
	C8737	C	0.699595	0.407372	0.920614
	C8738	C	0.673724	0.455216	0.575182
	C8739	C	0.737894	0.405171	0.578079
	C8740	C	0.673741	0.454853	0.919525
	C8741	C	0.738016	0.405239	0.922721
	C8742	C	0.635334	0.457300	0.575786
	C8743	C	0.699475	0.406882	0.575261
	C8744	C	0.674437	0.405364	0.669521
	C8745	C	0.736936	0.468318	0.672347
	C8746	C	0.636289	0.394435	0.825264
	C8747	C	0.698712	0.456889	0.824848
	C8748	C	0.636222	0.394790	0.670152
	C8749	C	0.698778	0.456639	0.669883
	C8750	C	0.674462	0.405279	0.824972
	C8751	C	0.736922	0.467871	0.827477
	C8752	C	0.639737	0.454658	0.997557
	C8753	C	0.703926	0.404579	0.497782
	C8754	C	0.669332	0.457562	0.997144
	C8755	C	0.733517	0.407953	0.499997
	C8756	C	0.670172	0.401872	0.747447
	C8757	C	0.732586	0.464681	0.749561
	C8758	C	0.640547	0.398102	0.747666
	C8759	C	0.703050	0.460365	0.747554
	C8760	C	0.647240	0.454572	0.997373
	C8761	C	0.711435	0.404443	0.498331
	C8762	C	0.661822	0.457755	0.997390
	C8763	C	0.726016	0.407806	0.499258
	C8764	C	0.662678	0.400058	0.747391
	C8765	C	0.725139	0.462959	0.749253
	C8766	C	0.648019	0.399867	0.747262
	C8767	C	0.710486	0.462393	0.748034
	C8768	C	0.650987	0.455444	0.913072
	C8769	C	0.715268	0.405482	0.914616
	C8770	C	0.658037	0.457083	0.581637
	C8771	C	0.722212	0.407416	0.583375
	C8772	C	0.658059	0.456845	0.913058
	C8773	C	0.722345	0.406973	0.914810
	C8774	C	0.650978	0.455525	0.582017
	C8775	C	0.715149	0.405946	0.582891
	C8776	C	0.658892	0.399994	0.663072
	C8777	C	0.721375	0.463179	0.664585
	C8778	C	0.651791	0.399943	0.831341
	C8779	C	0.714235	0.462372	0.832854
	C8780	C	0.651799	0.399914	0.663153
	C8781	C	0.714265	0.462791	0.663889
	C8782	C	0.658881	0.400109	0.831533
	C8783	C	0.721348	0.462655	0.833403
	N8784	N	0.628842	0.462207	0.948907
	N8785	N	0.693109	0.412336	0.949163
	N8786	N	0.680207	0.450098	0.546309
	N8787	N	0.744400	0.400301	0.549222
	N8788	N	0.680205	0.449860	0.948404
	N8789	N	0.744472	0.400148	0.951869
	N8790	N	0.628828	0.462147	0.546885
	N8791	N	0.693016	0.412068	0.545921
	N8792	N	0.680727	0.411556	0.698428
	N8793	N	0.743206	0.474248	0.701683
	N8794	N	0.630011	0.388215	0.796666
	N8795	N	0.692480	0.450455	0.795612
	N8796	N	0.629960	0.388494	0.699322
	N8797	N	0.692526	0.450306	0.698612
	N8798	N	0.680752	0.411408	0.795919
	N8799	N	0.743204	0.473996	0.799189
	H8800	H	0.634681	0.567894	0.347179
	H8801	H	0.699035	0.518733	0.345127
	H8802	H	0.670744	0.568658	0.150791
	H8803	H	0.735045	0.519149	0.152233
	H8804	H	0.670715	0.568295	0.345708
	H8805	H	0.735148	0.518961	0.347193
	H8806	H	0.634631	0.568690	0.150882
	H8807	H	0.698856	0.518046	0.149402
	H8808	H	0.671584	0.515967	0.095057
	H8809	H	0.734069	0.579342	0.097897
	H8810	H	0.635645	0.508133	0.400826
	H8811	H	0.698066	0.571346	0.400084
	H8812	H	0.635555	0.508547	0.095938
	H8813	H	0.698211	0.570419	0.095793
	H8814	H	0.671612	0.515824	0.399997
	H8815	H	0.734025	0.578617	0.402757
	H8816	H	0.646514	0.567705	0.347175
	H8817	H	0.710919	0.516975	0.346056
	H8818	H	0.658911	0.569188	0.149764
	H8819	H	0.723097	0.519944	0.150969
	H8820	H	0.658888	0.569824	0.346870
	H8821	H	0.723273	0.519256	0.346735
	H8822	H	0.646539	0.567326	0.149540
	H8823	H	0.710754	0.517507	0.149980
	H8824	H	0.659776	0.512295	0.095860
	H8825	H	0.722319	0.575701	0.097864
	H8826	H	0.647418	0.512345	0.399362
	H8827	H	0.709837	0.574191	0.399789
	H8828	H	0.647362	0.511622	0.096673
	H8829	H	0.709943	0.574973	0.096929
	H8830	H	0.659808	0.512646	0.399142
	H8831	H	0.722238	0.574765	0.401034
	Co8832	Co	0.747281	0.606593	0.126890
	Co8833	Co	0.684868	0.543275	0.122146
	Co8834	Co	0.622359	0.480756	0.373069
	Co8835	Co	0.684860	0.543495	0.372275
	C8836	C	0.633512	0.569685	0.421321
	C8837	C	0.697844	0.519921	0.419553
	C8838	C	0.671941	0.567232	0.076060
	C8839	C	0.736185	0.517598	0.077920
	C8840	C	0.671907	0.567000	0.420205
	C8841	C	0.736280	0.517558	0.421815
	C8842	C	0.633500	0.570248	0.076023
	C8843	C	0.697766	0.519598	0.074931
	C8844	C	0.672705	0.517530	0.169692
	C8845	C	0.735209	0.580408	0.172897
	C8846	C	0.634527	0.506532	0.325972
	C8847	C	0.696945	0.569535	0.325310
	C8848	C	0.634479	0.506836	0.170803
	C8849	C	0.697038	0.569050	0.170066
	C8850	C	0.672687	0.517629	0.324809
	C8851	C	0.735170	0.580233	0.328020
	C8852	C	0.637930	0.567098	0.499031
	C8853	C	0.702196	0.517311	-0.002326
	C8854	C	0.667507	0.569660	0.498071
	C8855	C	0.731806	0.520211	0.000225
	C8856	C	0.668398	0.514079	0.247223
	C8857	C	0.730874	0.576926	0.250178
	C8858	C	0.638806	0.510249	0.248263
	C8859	C	0.701296	0.572862	0.247995
	C8860	C	0.645424	0.566947	0.499035
	C8861	C	0.709710	0.517201	-0.001505
	C8862	C	0.660007	0.569935	0.498328
	C8863	C	0.724307	0.520400	-0.000428
	C8864	C	0.660935	0.512350	0.247402
	C8865	C	0.723424	0.575080	0.249650
	C8866	C	0.646273	0.512130	0.247991
	C8867	C	0.708770	0.574697	0.248414
	C8868	C	0.649162	0.568042	0.414578
	C8869	C	0.713524	0.517821	0.413424
	C8870	C	0.656272	0.568862	0.082497
	C8871	C	0.720484	0.519537	0.083473
	C8872	C	0.656234	0.569351	0.414201
	C8873	C	0.720594	0.519292	0.413727
	C8874	C	0.649184	0.567579	0.082313
	C8875	C	0.713421	0.518047	0.083188
	C8876	C	0.657139	0.512266	0.163231
	C8877	C	0.719664	0.575286	0.165101
	C8878	C	0.650063	0.512314	0.332071
	C8879	C	0.712528	0.574537	0.332818
	C8880	C	0.650044	0.511978	0.163590
	C8881	C	0.712569	0.575014	0.164429
	C8882	C	0.657162	0.512476	0.331823
	C8883	C	0.719622	0.574778	0.333462
	N8884	N	0.627054	0.575115	0.450237
	N8885	N	0.691338	0.524658	0.448015
	N8886	N	0.678410	0.562272	0.046815
	N8887	N	0.742666	0.512479	0.049306
	N8888	N	0.678400	0.562131	0.449052
	N8889	N	0.742758	0.512527	0.451612
	N8890	N	0.627057	0.575588	0.047339
	N8891	N	0.691277	0.524380	0.045950
	N8892	N	0.678970	0.523816	0.198560
	N8893	N	0.741482	0.586562	0.202379
	N8894	N	0.628249	0.500380	0.297240
	N8895	N	0.690690	0.563165	0.295896
	N8896	N	0.628234	0.500483	0.199903
	N8897	N	0.690765	0.562810	0.198751
	N8898	N	0.678944	0.523986	0.296069
	N8899	N	0.741461	0.586362	0.299637
	H8900	H	0.634627	0.568809	0.845805
	H8901	H	0.698957	0.518760	0.844844
	H8902	H	0.670777	0.568541	0.650308
	H8903	H	0.734985	0.518898	0.651620
	H8904	H	0.670701	0.568645	0.845563
	H8905	H	0.735076	0.518603	0.847611
	H8906	H	0.634705	0.568823	0.651410
	H8907	H	0.698895	0.517739	0.649720
	H8908	H	0.671565	0.516220	0.595015
	H8909	H	0.734158	0.578710	0.598126
	H8910	H	0.635629	0.508178	0.900328
	H8911	H	0.697968	0.571202	0.899919
	H8912	H	0.635593	0.508401	0.596393
	H8913	H	0.698131	0.570448	0.595688
	H8914	H	0.671624	0.516011	0.900097
	H8915	H	0.733942	0.579119	0.902045
	H8916	H	0.646520	0.567242	0.846584
	H8917	H	0.710923	0.517594	0.846967
	H8918	H	0.658969	0.569294	0.649777
	H8919	H	0.723163	0.520880	0.649960
	H8920	H	0.658896	0.569476	0.846445
	H8921	H	0.723264	0.520025	0.847447
	H8922	H	0.646562	0.567061	0.650351
	H8923	H	0.710778	0.518508	0.648949
	H8924	H	0.659754	0.512355	0.596679
	H8925	H	0.722282	0.575908	0.597301
	H8926	H	0.647341	0.511978	0.899559
	H8927	H	0.709823	0.573926	0.899832
	H8928	H	0.647354	0.511904	0.596576
	H8929	H	0.709871	0.575661	0.596860
	H8930	H	0.659742	0.512831	0.899762
	H8931	H	0.722223	0.574419	0.900467
	Co8932	Co	0.747396	0.606328	0.627268
	Co8933	Co	0.684844	0.543120	0.622244
	Co8934	Co	0.622352	0.480894	0.872861
	Co8935	Co	0.684781	0.543359	0.872554
	C8936	C	0.633465	0.570087	0.920780
	C8937	C	0.697804	0.519926	0.919825
	C8938	C	0.671940	0.567131	0.575652
	C8939	C	0.736216	0.517619	0.576858
	C8940	C	0.671913	0.567304	0.920254
	C8941	C	0.736209	0.517442	0.922550
	C8942	C	0.633519	0.570077	0.576786
	C8943	C	0.697775	0.519494	0.574485
	C8944	C	0.672646	0.517779	0.670317
	C8945	C	0.735209	0.580339	0.672624
	C8946	C	0.634465	0.506811	0.825909
	C8947	C	0.696930	0.569340	0.825294
	C8948	C	0.634456	0.507010	0.670552
	C8949	C	0.697005	0.569009	0.670386
	C8950	C	0.672651	0.517818	0.825914
	C8951	C	0.735107	0.580397	0.827973
	C8952	C	0.637924	0.567320	0.998279
	C8953	C	0.702230	0.517233	0.497354
	C8954	C	0.667493	0.569813	0.998381
	C8955	C	0.731840	0.520270	0.499033
	C8956	C	0.668337	0.514342	0.748129
	C8957	C	0.730868	0.576902	0.749813
	C8958	C	0.638751	0.510348	0.748301
	C8959	C	0.701237	0.572837	0.748141
	C8960	C	0.645414	0.566854	0.998167
	C8961	C	0.709731	0.517342	0.497632
	C8962	C	0.660016	0.569803	0.998295
	C8963	C	0.724320	0.520490	0.498408
	C8964	C	0.660874	0.512601	0.748225
	C8965	C	0.723374	0.575140	0.749091
	C8966	C	0.646234	0.512142	0.748206
	C8967	C	0.708717	0.574895	0.748575
	C8968	C	0.649180	0.567626	0.913833
	C8969	C	0.713539	0.518084	0.914323
	C8970	C	0.656282	0.568980	0.582846
	C8971	C	0.720532	0.520137	0.582533
	C8972	C	0.656256	0.569094	0.913805
	C8973	C	0.720602	0.519529	0.914627
	C8974	C	0.649205	0.567609	0.583121
	C8975	C	0.713469	0.518644	0.582034
	C8976	C	0.657101	0.512414	0.663956
	C8977	C	0.719606	0.575458	0.664484
	C8978	C	0.650016	0.512252	0.832516
	C8979	C	0.712492	0.574424	0.832862
	C8980	C	0.650009	0.512124	0.663824
	C8981	C	0.712524	0.575330	0.664263
	C8982	C	0.657108	0.512569	0.832548
	C8983	C	0.719569	0.574770	0.833031
	N8984	N	0.627023	0.575505	0.949788
	N8985	N	0.691297	0.524572	0.948286
	N8986	N	0.678424	0.562138	0.546227
	N8987	N	0.742714	0.512606	0.548814
	N8988	N	0.678402	0.562362	0.949046
	N8989	N	0.742679	0.512391	0.951649
	N8990	N	0.627056	0.575304	0.547860
	N8991	N	0.691288	0.524344	0.545630
	N8992	N	0.678934	0.523823	0.699221
	N8993	N	0.741477	0.586657	0.702513
	N8994	N	0.628192	0.500672	0.796814
	N8995	N	0.690689	0.562834	0.796268
	N8996	N	0.628193	0.500736	0.699436
	N8997	N	0.690737	0.562630	0.698879
	N8998	N	0.678948	0.523767	0.796718
	N8999	N	0.741398	0.586686	0.799639
	H9000	H	0.633133	0.676401	0.348147
	H9001	H	0.697311	0.631880	0.344731
	H9002	H	0.669120	0.682148	0.150768
	H9003	H	0.733100	0.631368	0.152501
	H9004	H	0.669093	0.682412	0.347324
	H9005	H	0.733341	0.630920	0.347449
	H9006	H	0.633148	0.676879	0.152618
	H9007	H	0.697057	0.630626	0.150838
	H9008	H	0.670012	0.629159	0.097302
	H9009	H	0.732553	0.691960	0.098858
	H9010	H	0.634096	0.620158	0.401504
	H9011	H	0.696451	0.684287	0.401255
	H9012	H	0.634092	0.621023	0.095920
	H9013	H	0.696677	0.682975	0.096681
	H9014	H	0.669932	0.629711	0.400713
	H9015	H	0.732447	0.692027	0.403330
	H9016	H	0.644956	0.679387	0.650554
	H9017	H	0.709067	0.630914	0.650049
	H9018	H	0.657316	0.683316	0.149661
	H9019	H	0.721437	0.631701	-0.151947
	H9020	H	0.657290	0.683143	0.650465
	H9021	H	0.721395	0.633272	0.651056
	H9022	H	0.644977	0.679343	0.150614
	H9023	H	0.709054	0.629609	-0.152583
	H9024	H	0.658229	0.625008	0.097874
	H9025	H	0.720771	0.688120	0.099386
	H9026	H	0.645835	0.624506	0.399876
	H9027	H	0.708281	0.686503	0.401159
	H9028	H	0.645815	0.623660	0.098261
	H9029	H	0.708392	0.687336	0.098716
	H9030	H	0.658235	0.625649	0.400086
	H9031	H	0.720679	0.687385	0.402078
	Co9032	Co	0.745659	0.719929	0.127499
	Co9033	Co	0.683207	0.657007	0.122964
	Co9034	Co	0.620622	0.594110	0.373749
	Co9035	Co	0.683184	0.657276	0.373436
	C9036	C	0.631952	0.677317	0.422795
	C9037	C	0.696097	0.632927	0.419662
	C9038	C	0.670282	0.681021	0.076525
	C9039	C	0.734357	0.630129	0.078208
	C9040	C	0.670272	0.681022	0.421993
	C9041	C	0.734508	0.629855	0.422354
	C9042	C	0.631946	0.677497	0.077833
	C9043	C	0.695968	0.632323	0.076020
	C9044	C	0.671131	0.630887	0.171052
	C9045	C	0.733606	0.693586	0.173878
	C9046	C	0.632955	0.619027	0.326539
	C9047	C	0.695379	0.682488	0.326233
	C9048	C	0.632961	0.619386	0.171016
	C9049	C	0.695505	0.681817	0.171086
	C9050	C	0.671081	0.631378	0.326158
	C9051	C	0.733579	0.693521	0.329069
	C9052	C	0.636386	0.676413	0.500407
	C9053	C	0.700404	0.629922	-0.001523
	C9054	C	0.665906	0.683606	0.499853
	C9055	C	0.729974	0.632551	0.000144
	C9056	C	0.666813	0.627456	0.248673
	C9057	C	0.729296	0.689813	0.251307
	C9058	C	0.637283	0.622408	0.248771
	C9059	C	0.699764	0.685288	0.249129
	C9060	C	0.643871	0.678387	0.500208
	C9061	C	0.707908	0.629543	-0.001128
	C9062	C	0.658390	0.683489	0.499860
	C9063	C	0.722475	0.632577	-0.000376
	C9064	C	0.659369	0.625252	0.248896
	C9065	C	0.721852	0.687627	0.250796
	C9066	C	0.644739	0.624290	0.249042
	C9067	C	0.707218	0.686923	0.249823
	C9068	C	0.647622	0.679988	0.583976
	C9069	C	0.711723	0.630929	0.582891
	C9070	C	0.654648	0.682377	0.083027
	C9071	C	0.718766	0.631550	-0.084889
	C9072	C	0.654651	0.682304	0.583706
	C9073	C	0.718796	0.632471	0.583429
	C9074	C	0.647609	0.679979	0.083433
	C9075	C	0.711697	0.630084	-0.085419
	C9076	C	0.655591	0.624803	0.164967
	C9077	C	0.718103	0.687692	0.166516
	C9078	C	0.648509	0.624628	0.333029
	C9079	C	0.710961	0.686787	0.334209
	C9080	C	0.648494	0.624232	0.165042
	C9081	C	0.711017	0.687289	0.165988
	C9082	C	0.655602	0.625183	0.332984
	C9083	C	0.718057	0.687236	0.334739
	N9084	N	0.625350	0.679814	0.451293
	N9085	N	0.689644	0.638183	0.448410
	N9086	N	0.676746	0.675919	0.047317
	N9087	N	0.740848	0.625266	0.049987
	N9088	N	0.676775	0.676047	0.450445
	N9089	N	0.740962	0.624744	0.452081
	N9090	N	0.625342	0.679911	0.049459
	N9091	N	0.689530	0.637756	0.046643
	N9092	N	0.677363	0.637424	0.199805
	N9093	N	0.739841	0.700002	0.202938
	N9094	N	0.626648	0.613322	0.297338
	N9095	N	0.689083	0.676685	0.297135
	N9096	N	0.626658	0.613534	0.200079
	N9097	N	0.689169	0.676262	0.199439
	N9098	N	0.677335	0.637698	0.297136
	N9099	N	0.739831	0.699958	0.300389
	H9100	H	0.633113	0.676136	0.847557
	H9101	H	0.697244	0.631860	0.845884
	H9102	H	0.669182	0.682094	0.652093
	H9103	H	0.733309	0.631772	0.652333
	H9104	H	0.669101	0.682540	0.846314
	H9105	H	0.733290	0.631259	0.848271
	H9106	H	0.633140	0.676601	0.652602
	H9107	H	0.697176	0.630844	0.649766
	H9108	H	0.670097	0.628952	0.596441
	H9109	H	0.732536	0.691971	0.599086
	H9110	H	0.634123	0.621082	0.900445
	H9111	H	0.696504	0.683804	0.900790
	H9112	H	0.634128	0.620804	0.596426
	H9113	H	0.696716	0.683078	0.595857
	H9114	H	0.669988	0.629566	0.900784
	H9115	H	0.732432	0.692052	0.903329
	H9116	H	0.644926	0.679286	0.848979
	H9117	H	0.708929	0.630244	1.150220
	H9118	H	0.657240	0.683418	0.349230
	H9119	H	0.721561	0.631642	0.347708
	H9120	H	0.657245	0.683278	0.848369
	H9121	H	0.721280	0.632337	1.151156
	H9122	H	0.644941	0.679233	0.349373
	H9123	H	0.709197	0.629514	0.346905
	H9124	H	0.658327	0.624807	0.597797
	H9125	H	0.720758	0.688457	0.598893
	H9126	H	0.645849	0.624515	0.899823
	H9127	H	0.708274	0.686176	0.900874
	H9128	H	0.645943	0.623903	0.597354
	H9129	H	0.708390	0.687409	0.598363
	H9130	H	0.658301	0.625294	0.899999
	H9131	H	0.720716	0.686960	0.902038
	Co9132	Co	0.745661	0.719846	0.627047
	Co9133	Co	0.683251	0.656843	0.623071
	Co9134	Co	0.620692	0.594790	0.873582
	Co9135	Co	0.683186	0.657304	0.873550
	C9136	C	0.631923	0.677064	0.922607
	C9137	C	0.696057	0.633057	0.920521
	C9138	C	0.670319	0.680883	0.577215
	C9139	C	0.734492	0.630257	0.577779
	C9140	C	0.670265	0.681055	0.920966
	C9141	C	0.734420	0.629922	0.922832
	C9142	C	0.631946	0.677448	0.577917
	C9143	C	0.696033	0.632391	0.575060
	C9144	C	0.671156	0.630850	0.671503
	C9145	C	0.733596	0.693679	0.673726
	C9146	C	0.632957	0.619654	0.826225
	C9147	C	0.695405	0.682321	0.826146
	C9148	C	0.632973	0.619440	0.670780
	C9149	C	0.695510	0.681901	0.670590
	C9150	C	0.671127	0.631060	0.826540
	C9151	C	0.733571	0.693613	0.828853
	C9152	C	0.636383	0.676292	1.000071
	C9153	C	0.700493	0.629914	0.497636
	C9154	C	0.665870	0.683815	0.998901
	C9155	C	0.730078	0.632748	0.499873
	C9156	C	0.666859	0.627245	0.749060
	C9157	C	0.729290	0.689904	0.751349
	C9158	C	0.637299	0.622669	0.748600
	C9159	C	0.699780	0.685328	0.748893
	C9160	C	0.643851	0.678273	0.999712
	C9161	C	0.707988	0.629644	0.498342
	C9162	C	0.658368	0.683548	0.999046
	C9163	C	0.722595	0.632845	0.499484
	C9164	C	0.659412	0.625091	0.749004
	C9165	C	0.721859	0.687786	0.750746
	C9166	C	0.644770	0.624331	0.748789
	C9167	C	0.707259	0.687035	0.749617
	C9168	C	0.647578	0.679907	0.915731
	C9169	C	0.711633	0.630497	1.083496
	C9170	C	0.654628	0.682457	0.416055
	C9171	C	0.718880	0.631583	0.414904
	C9172	C	0.654616	0.682418	0.915309
	C9173	C	0.718697	0.631844	1.083674
	C9174	C	0.647597	0.680055	0.416177
	C9175	C	0.711804	0.630117	0.414319
	C9176	C	0.655657	0.624672	0.664822
	C9177	C	0.718118	0.687896	0.666107
	C9178	C	0.648529	0.624621	0.832893
	C9179	C	0.710990	0.686802	0.834149
	C9180	C	0.648568	0.624207	0.664828
	C9181	C	0.711041	0.687403	0.665484
	C9182	C	0.655630	0.625055	0.832995
	C9183	C	0.718083	0.687184	0.834698
	N9184	N	0.625316	0.679645	0.951228
	N9185	N	0.689562	0.638135	0.949312
	N9186	N	0.676806	0.675923	0.547893
	N9187	N	0.740963	0.625089	0.549432
	N9188	N	0.676728	0.675980	0.949931
	N9189	N	0.740889	0.625103	0.952374
	N9190	N	0.625345	0.679819	0.549360
	N9191	N	0.689595	0.637766	0.546085
	N9192	N	0.677398	0.637300	0.700417
	N9193	N	0.739837	0.700043	0.702918
	N9194	N	0.626637	0.613930	0.797152
	N9195	N	0.689111	0.676507	0.796441
	N9196	N	0.626639	0.613855	0.699835
	N9197	N	0.689176	0.676214	0.699248
	N9198	N	0.677365	0.637525	0.797547
	N9199	N	0.739815	0.700093	0.800303
	H9200	H	0.642587	0.886133	0.347812
	H9201	H	0.695736	0.739386	0.347592
	H9202	H	0.669987	0.801386	0.151076
	H9203	H	0.731520	0.744999	0.153308
	H9204	H	0.669739	0.800891	0.348720
	H9205	H	0.731617	0.744823	0.348834
	H9206	H	0.642667	0.886884	0.150598
	H9207	H	0.695666	0.738744	0.152052
	H9208	H	0.667017	0.741432	0.098309
	H9209	H	0.729569	0.803482	0.099727
	H9210	H	0.631473	0.729380	0.401631
	H9211	H	0.693840	0.792058	0.401799
	H9212	H	0.631352	0.729529	0.097885
	H9213	H	0.693990	0.791766	0.098110
	H9214	H	0.667049	0.741315	0.401397
	H9215	H	0.729468	0.805006	0.403241
	H9216	H	0.651368	0.857736	0.391131
	H9217	H	0.707480	0.741608	0.349999
	H9218	H	0.660603	0.827624	-0.057582
	H9219	H	0.719789	0.745695	-0.149622
	H9220	H	0.660885	0.828235	0.391112
	H9221	H	0.719799	0.745588	0.350702
	H9222	H	0.651149	0.857288	-0.057961
	H9223	H	0.707505	0.741506	-0.150295
	H9224	H	0.655279	0.741001	0.101077
	H9225	H	0.717762	0.803089	0.103005
	H9226	H	0.642865	0.738236	0.398424
	H9227	H	0.705300	0.801123	0.398203
	H9228	H	0.642864	0.738527	0.101093
	H9229	H	0.705349	0.800689	0.103312
	H9230	H	0.655268	0.740787	0.398179
	H9231	H	0.717720	0.803765	0.399026
	Co9232	Co	0.743744	0.822947	0.127563
	Co9233	Co	0.681275	0.760268	0.124635
	Co9234	Co	0.618803	0.697700	0.374303
	Co9235	Co	0.681228	0.760184	0.373953
	C9236	C	0.641725	0.889195	0.421986
	C9237	C	0.694443	0.740075	0.422021
	C9238	C	0.670803	0.798287	0.076744
	C9239	C	0.732745	0.743692	0.078907
	C9240	C	0.670708	0.797947	0.422269
	C9241	C	0.732787	0.743565	0.423839
	C9242	C	0.641778	0.889573	0.076743
	C9243	C	0.694450	0.739897	0.077387
	C9244	C	0.668242	0.741998	0.172217
	C9245	C	0.730758	0.804302	0.174045
	C9246	C	0.630393	0.727386	0.327312
	C9247	C	0.692809	0.790088	0.327497
	C9248	C	0.630358	0.727572	0.172340
	C9249	C	0.692893	0.789893	0.172497
	C9250	C	0.668228	0.741868	0.327093
	C9251	C	0.730715	0.804959	0.328921
	C9252	C	0.645060	0.878567	0.499517
	C9253	C	0.698925	0.738949	-0.000156
	C9254	C	0.667435	0.808815	0.499477
	C9255	C	0.728345	0.746322	0.001012
	C9256	C	0.663822	0.740818	0.249544
	C9257	C	0.726319	0.803404	0.251116
	C9258	C	0.634476	0.733095	0.249810
	C9259	C	0.696963	0.795527	0.250305
	C9260	C	0.650695	0.860786	0.499600
	C9261	C	0.706377	0.740777	0.000178
	C9262	C	0.661760	0.826469	0.499452
	C9263	C	0.720868	0.746096	0.000801
	C9264	C	0.656347	0.740325	0.249589
	C9265	C	0.718859	0.802794	0.250968
	C9266	C	0.641798	0.737716	0.249536
	C9267	C	0.704301	0.800126	0.250711
	C9268	C	0.653463	0.851628	0.438746
	C9269	C	0.710094	0.742362	0.416857
	C9270	C	0.658713	0.834608	-0.032615
	C9271	C	0.717146	0.744948	-0.083030
	C9272	C	0.658850	0.834933	0.438761
	C9273	C	0.717139	0.744737	0.417352
	C9274	C	0.653334	0.851330	-0.032622
	C9275	C	0.710116	0.742341	-0.083384
	C9276	C	0.652599	0.740270	0.166616
	C9277	C	0.715116	0.802526	0.168609
	C9278	C	0.645524	0.738811	0.332554
	C9279	C	0.708017	0.801520	0.333230
	C9280	C	0.645535	0.738974	0.166652
	C9281	C	0.708050	0.801171	0.168415
	C9282	C	0.652597	0.740134	0.332530
	C9283	C	0.715092	0.802852	0.333412
	N9284	N	0.636916	0.905098	0.451161
	N9285	N	0.687837	0.742548	0.450414
	N9286	N	0.675622	0.782423	0.047172
	N9287	N	0.739232	0.738759	0.050651
	N9288	N	0.675565	0.782174	0.451419
	N9289	N	0.739249	0.738590	0.453076
	N9290	N	0.636926	0.905273	0.046670
	N9291	N	0.687874	0.742483	0.048440
	N9292	N	0.674797	0.744033	0.200915
	N9293	N	0.737290	0.806614	0.203209
	N9294	N	0.624457	0.718374	0.298082
	N9295	N	0.686908	0.780952	0.297626
	N9296	N	0.624463	0.718452	0.201302
	N9297	N	0.686959	0.780933	0.201235
	N9298	N	0.674763	0.744004	0.298311
	N9299	N	0.737267	0.806927	0.300694
	H9300	H	0.642584	0.886185	0.847984
	H9301	H	0.695733	0.739355	0.847149
	H9302	H	0.669887	0.801226	0.650032
	H9303	H	0.731549	0.744868	0.654018
	H9304	H	0.669650	0.800538	0.848118
	H9305	H	0.731670	0.745044	0.848889
	H9306	H	0.642603	0.886542	0.650633
	H9307	H	0.695581	0.738601	0.652522
	H9308	H	0.667013	0.741570	0.597461
	H9309	H	0.729544	0.803450	0.600608
	H9310	H	0.631518	0.728718	0.902571
	H9311	H	0.693873	0.792281	0.901624
	H9312	H	0.631326	0.729665	0.598560
	H9313	H	0.694007	0.791373	0.597889
	H9314	H	0.667106	0.741056	0.901495
	H9315	H	0.729538	0.804461	0.903890
	H9316	H	0.651845	0.859815	1.056646
	H9317	H	0.707419	0.741918	1.150624
	H9318	H	0.661050	0.829430	0.608110
	H9319	H	0.719700	0.746033	0.652043
	H9320	H	0.661304	0.830167	1.057103
	H9321	H	0.719711	0.745923	1.151100
	H9322	H	0.651546	0.859073	0.607638
	H9323	H	0.707369	0.742026	0.651443
	H9324	H	0.655283	0.740089	0.601932
	H9325	H	0.717839	0.803562	0.603593
	H9326	H	0.642871	0.738525	0.898851
	H9327	H	0.705329	0.800466	0.898454
	H9328	H	0.642877	0.737397	0.602051
	H9329	H	0.705415	0.801031	0.602852
	H9330	H	0.655285	0.741094	0.898453
	H9331	H	0.717715	0.803016	0.899469
	Co9332	Co	0.743714	0.822793	0.627187
	Co9333	Co	0.681313	0.760348	0.624369
	Co9334	Co	0.618807	0.697424	0.874650
	Co9335	Co	0.681305	0.760371	0.873780
	C9336	C	0.641736	0.889261	0.921836
	C9337	C	0.694497	0.740170	0.921776
	C9338	C	0.670782	0.798174	0.576605
	C9339	C	0.732748	0.743466	0.579431
	C9340	C	0.670632	0.797798	0.921865
	C9341	C	0.732795	0.743682	0.923638
	C9342	C	0.641732	0.889483	0.576590
	C9343	C	0.694384	0.739666	0.577761
	C9344	C	0.668233	0.742150	0.671748
	C9345	C	0.730771	0.804169	0.674609
	C9346	C	0.630425	0.727049	0.828106
	C9347	C	0.692848	0.790056	0.827077
	C9348	C	0.630357	0.727384	0.673044
	C9349	C	0.692921	0.789763	0.672066
	C9350	C	0.668279	0.741780	0.826854
	C9351	C	0.730741	0.804702	0.829496
	C9352	C	0.645071	0.878713	0.999475
	C9353	C	0.698873	0.738843	0.500276
	C9354	C	0.667413	0.808762	0.999366
	C9355	C	0.728341	0.746121	0.501542
	C9356	C	0.663850	0.740796	0.749524
	C9357	C	0.726322	0.803307	0.751901
	C9358	C	0.634478	0.732757	0.750587
	C9359	C	0.697023	0.795405	0.749757
	C9360	C	0.650689	0.860879	0.999470
	C9361	C	0.706331	0.740844	0.500660
	C9362	C	0.661750	0.826454	0.999444
	C9363	C	0.720854	0.745971	0.501384
	C9364	C	0.656368	0.740143	0.750132
	C9365	C	0.718871	0.802808	0.751605
	C9366	C	0.641809	0.737367	0.750367
	C9367	C	0.704308	0.800050	0.750364
	C9368	C	0.653727	0.852770	1.031658
	C9369	C	0.710078	0.742520	1.083907
	C9370	C	0.658967	0.835603	0.560463
	C9371	C	0.717077	0.745122	0.584976
	C9372	C	0.659085	0.835963	1.031865
	C9373	C	0.717112	0.744979	1.084231
	C9374	C	0.653572	0.852278	0.560276
	C9375	C	0.710028	0.742802	0.584678
	C9376	C	0.652616	0.739600	0.667610
	C9377	C	0.715146	0.802819	0.668944
	C9378	C	0.645539	0.738839	0.833015
	C9379	C	0.708009	0.801033	0.833218
	C9380	C	0.645553	0.738251	0.667646
	C9381	C	0.708066	0.801421	0.668378
	C9382	C	0.652614	0.740254	0.832852
	C9383	C	0.715094	0.802450	0.833870
	N9384	N	0.636901	0.905109	0.950928
	N9385	N	0.687905	0.742689	0.950176
	N9386	N	0.675624	0.782341	0.547199
	N9387	N	0.739227	0.738631	0.550753
	N9388	N	0.675497	0.782078	0.951112
	N9389	N	0.739256	0.738605	0.953193
	N9390	N	0.636927	0.905287	0.546797
	N9391	N	0.687805	0.742316	0.548516
	N9392	N	0.674784	0.744289	0.700496
	N9393	N	0.737293	0.806493	0.703443
	N9394	N	0.624488	0.718095	0.798892
	N9395	N	0.686935	0.781122	0.797489
	N9396	N	0.624426	0.718421	0.701942
	N9397	N	0.686977	0.781095	0.700724
	N9398	N	0.674810	0.744088	0.797931
	N9399	N	0.737276	0.806773	0.800913
	H9400	H	0.643313	1.004953	0.346593
	H9401	H	0.705086	0.948894	0.346913
	H9402	H	0.679353	1.011099	0.150321
	H9403	H	0.732247	0.863459	0.152648
	H9404	H	0.679253	1.010960	0.345207
	H9405	H	0.732589	0.864517	0.350988
	H9406	H	0.643458	1.005291	0.151289
	H9407	H	0.705086	0.949137	0.149596
	H9408	H	0.680967	0.958458	0.096425
	H9409	H	0.743524	1.020695	0.096331
	H9410	H	0.645487	0.945930	0.400582
	H9411	H	0.707949	1.008796	0.399390
	H9412	H	0.645494	0.946176	0.097289
	H9413	H	0.707990	1.008413	0.096322
	H9414	H	0.681131	0.957713	0.399987
	H9415	H	0.743554	1.020725	0.399768
	H9416	H	0.655149	1.004764	0.347857
	H9417	H	0.713599	0.919227	0.382099
	H9418	H	0.667635	1.007860	0.148963
	H9419	H	0.723424	0.891442	0.076516
	H9420	H	0.667484	1.008934	0.347729
	H9421	H	0.723109	0.889772	0.383223
	H9422	H	0.655330	1.003476	0.149287
	H9423	H	0.713938	0.921025	0.075117
	H9424	H	0.669629	0.948466	0.099747
	H9425	H	0.732080	1.012378	0.099567
	H9426	H	0.657243	0.946966	0.397582
	H9427	H	0.719739	1.008614	0.396505
	H9428	H	0.657235	0.945978	0.100402
	H9429	H	0.719682	1.009870	0.099602
	H9430	H	0.669630	0.949309	0.396915
	H9431	H	0.732153	1.011023	0.396459
	Co9432	Co	0.756193	1.052293	0.122828
	Co9433	Co	0.693710	0.989754	0.122937
	Co9434	Co	0.631206	0.926970	0.373519
	Co9435	Co	0.693695	0.989682	0.372668
	C9436	C	0.642164	1.006325	0.420968
	C9437	C	0.704202	0.951841	0.421182
	C9438	C	0.680599	1.010341	0.075581
	C9439	C	0.733191	0.860554	0.078731
	C9440	C	0.680490	1.009932	0.419767
	C9441	C	0.733397	0.861173	0.424765
	C9442	C	0.642266	1.006403	0.076578
	C9443	C	0.704216	0.951932	0.075547
	C9444	C	0.682057	0.960244	0.170224
	C9445	C	0.744575	1.022737	0.170591
	C9446	C	0.644257	0.945153	0.326397
	C9447	C	0.706761	1.007964	0.325553
	C9448	C	0.644259	0.945428	0.171449
	C9449	C	0.706773	1.008001	0.170416
	C9450	C	0.682117	0.959906	0.325456
	C9451	C	0.744609	1.022572	0.325321
	C9452	C	0.646567	1.003609	0.498482
	C9453	C	0.707559	0.941177	-0.001258
	C9454	C	0.676063	1.011020	0.497559
	C9455	C	0.729934	0.871318	0.001503
	C9456	C	0.677987	0.954482	0.247933
	C9457	C	0.740497	1.017054	0.248048
	C9458	C	0.648679	0.946499	0.248823
	C9459	C	0.711167	1.009168	0.248005
	C9460	C	0.654065	1.003710	0.498118
	C9461	C	0.713233	0.923493	-0.000317
	C9462	C	0.668579	1.008988	0.497749
	C9463	C	0.724283	0.889115	0.000994
	C9464	C	0.670693	0.949654	0.248295
	C9465	C	0.733174	1.012376	0.248172
	C9466	C	0.656155	0.946922	0.248812
	C9467	C	0.718646	1.009732	0.247986
	C9468	C	0.657797	1.005408	0.414490
	C9469	C	0.715839	0.913647	0.433894
	C9470	C	0.664973	1.007373	0.082027
	C9471	C	0.721401	0.897873	0.043056
	C9472	C	0.664828	1.007813	0.414106
	C9473	C	0.721245	0.896992	0.434808
	C9474	C	0.657938	1.004917	0.082224
	C9475	C	0.716038	0.914603	0.042639
	C9476	C	0.666976	0.948076	0.165448
	C9477	C	0.729431	1.011582	0.165165
	C9478	C	0.659891	0.947307	0.331883
	C9479	C	0.722407	1.009453	0.330884
	C9480	C	0.659902	0.946776	0.165831
	C9481	C	0.722376	1.010251	0.165113
	C9482	C	0.666961	0.948636	0.331511
	C9483	C	0.729472	1.010794	0.330925
	N9484	N	0.635680	1.011541	0.449979
	N9485	N	0.699366	0.967746	0.450332
	N9486	N	0.687197	1.007582	0.046619
	N9487	N	0.738069	0.844842	0.049818
	N9488	N	0.687084	1.007528	0.448377
	N9489	N	0.738181	0.845239	0.454326
	N9490	N	0.635789	1.011296	0.047433
	N9491	N	0.699390	0.967717	0.045768
	N9492	N	0.687985	0.969243	0.199481
	N9493	N	0.750505	1.031713	0.199308
	N9494	N	0.637718	0.943096	0.297408
	N9495	N	0.700219	1.005772	0.296673
	N9496	N	0.637727	0.943258	0.200218
	N9497	N	0.700222	1.005804	0.199131
	N9498	N	0.688032	0.968970	0.296126
	N9499	N	0.750519	1.031630	0.296036
	H9500	H	0.643447	1.004417	0.846686
	H9501	H	0.705192	0.948912	0.847327
	H9502	H	0.679242	1.010876	0.649896
	H9503	H	0.732164	0.863267	0.652788
	H9504	H	0.679364	1.010795	0.844941
	H9505	H	0.732499	0.864200	0.850756
	H9506	H	0.643298	1.005112	0.650809
	H9507	H	0.705031	0.949073	0.650625
	H9508	H	0.680963	0.958705	0.596102
	H9509	H	0.743585	1.020545	0.595640
	H9510	H	0.645490	0.945628	0.901473
	H9511	H	0.708069	1.008039	0.898947
	H9512	H	0.645473	0.945995	0.597305
	H9513	H	0.708019	1.008544	0.595706
	H9514	H	0.681217	0.957851	0.900160
	H9515	H	0.743585	1.020131	0.899047
	H9516	H	0.655231	1.004599	0.847732
	H9517	H	0.714023	0.921139	0.925216
	H9518	H	0.667566	1.007321	0.647826
	H9519	H	0.723909	0.893670	0.619296
	H9520	H	0.667573	1.008780	0.847108
	H9521	H	0.723569	0.891680	0.926049
	H9522	H	0.655223	1.003228	0.648207
	H9523	H	0.714411	0.923192	0.618283
	H9524	H	0.669640	0.948465	0.601428
	H9525	H	0.732156	1.011352	0.598107
	H9526	H	0.657245	0.947283	0.897698
	H9527	H	0.719770	1.008414	0.895254
	H9528	H	0.657281	0.945616	0.601379
	H9529	H	0.719801	1.008866	0.598314
	H9530	H	0.669613	0.950046	0.897343
	H9531	H	0.732203	1.011088	0.895613
	Co9532	Co	0.756230	1.052356	0.623239
	Co9533	Co	0.693672	0.990029	0.622773
	Co9534	Co	0.631196	0.927056	0.873019
	Co9535	Co	0.693772	0.989645	0.872231
	C9536	C	0.642254	1.005984	0.921231
	C9537	C	0.704298	0.951872	0.921049
	C9538	C	0.680499	1.010164	0.575145
	C9539	C	0.733183	0.860544	0.579285
	C9540	C	0.680604	1.010103	0.919778
	C9541	C	0.733327	0.860889	0.924549
	C9542	C	0.642167	1.006550	0.576159
	C9543	C	0.704158	0.951929	0.576154
	C9544	C	0.682060	0.960424	0.670774
	C9545	C	0.744658	1.022417	0.669656
	C9546	C	0.644269	0.945242	0.826886
	C9547	C	0.706822	1.007644	0.824694
	C9548	C	0.644268	0.945431	0.671383
	C9549	C	0.706815	1.007862	0.669718
	C9550	C	0.682184	0.959933	0.825849
	C9551	C	0.744633	1.022461	0.824762
	C9552	C	0.646677	1.003620	0.999033
	C9553	C	0.707506	0.941121	0.498975
	C9554	C	0.676153	1.011347	0.997719
	C9555	C	0.729960	0.871617	0.501822
	C9556	C	0.678015	0.954629	0.748533
	C9557	C	0.740544	1.016828	0.747206
	C9558	C	0.648676	0.946458	0.749186
	C9559	C	0.711236	1.008745	0.747310
	C9560	C	0.654166	1.003986	0.998505
	C9561	C	0.713181	0.923498	0.499739
	C9562	C	0.668687	1.009381	0.998021
	C9563	C	0.724304	0.889290	0.501363
	C9564	C	0.670706	0.949866	0.749296
	C9565	C	0.733245	1.011917	0.747004
	C9566	C	0.656151	0.946862	0.749470
	C9567	C	0.718697	1.009212	0.746946
	C9568	C	0.657890	1.005412	0.914477
	C9569	C	0.716099	0.914727	0.957854
	C9570	C	0.664874	1.006865	0.581564
	C9571	C	0.721675	0.899192	0.567263
	C9572	C	0.664930	1.007874	0.914193
	C9573	C	0.721469	0.897973	0.958525
	C9574	C	0.657845	1.004427	0.581625
	C9575	C	0.716267	0.915851	0.566396
	C9576	C	0.666989	0.948122	0.666878
	C9577	C	0.729513	1.010740	0.664122
	C9578	C	0.659901	0.947576	0.832291
	C9579	C	0.722458	1.009310	0.829707
	C9580	C	0.659923	0.946636	0.666874
	C9581	C	0.722447	1.009362	0.664124
	C9582	C	0.666966	0.949078	0.832092
	C9583	C	0.729531	1.010594	0.829863
	N9584	N	0.635771	1.010933	0.949940
	N9585	N	0.699442	0.967723	0.949971
	N9586	N	0.687098	1.007702	0.546446
	N9587	N	0.738039	0.844835	0.550060
	N9588	N	0.687196	1.007434	0.948493
	N9589	N	0.738154	0.845012	0.953847
	N9590	N	0.635668	1.011640	0.547410
	N9591	N	0.699334	0.967758	0.546289
	N9592	N	0.688003	0.969295	0.699451
	N9593	N	0.750556	1.031567	0.699212
	N9594	N	0.637721	0.943235	0.797843
	N9595	N	0.700280	1.005669	0.795993
	N9596	N	0.637723	0.943361	0.700041
	N9597	N	0.700268	1.005829	0.698680
	N9598	N	0.688083	0.968981	0.796258
	N9599	N	0.750541	1.031577	0.795700
	H9600	H	0.768293	0.129646	0.345386
	H9601	H	0.830215	0.074265	0.345041
	H9602	H	0.804398	0.136220	0.148537
	H9603	H	0.857221	-0.011437	0.150258
	H9604	H	0.804203	0.135539	0.342928
	H9605	H	0.857396	-0.011384	0.348132
	H9606	H	0.768370	0.129988	0.150615
	H9607	H	0.830015	0.073943	0.147279
	H9608	H	0.805958	0.083329	0.093941
	H9609	H	0.868779	0.144534	0.098717
	H9610	H	0.770543	0.070669	0.399411
	H9611	H	0.832911	0.133864	0.397791
	H9612	H	0.770491	0.070906	0.096235
	H9613	H	0.833058	0.132332	0.094863
	H9614	H	0.806105	0.082669	0.397255
	H9615	H	0.868309	0.146560	0.402458
	H9616	H	0.780263	0.128735	0.647788
	H9617	H	0.839229	0.047541	0.591693
	H9618	H	0.792620	0.132819	0.147970
	H9619	H	0.848935	0.018408	-0.051607
	H9620	H	0.792591	0.132445	0.646614
	H9621	H	0.848749	0.018192	0.593411
	H9622	H	0.780282	0.128760	0.148655
	H9623	H	0.839449	0.048132	-0.052916
	H9624	H	0.794622	0.073530	0.097384
	H9625	H	0.857110	0.134149	0.397095
	H9626	H	0.782305	0.071848	0.396104
	H9627	H	0.844792	0.135280	0.099212
	H9628	H	0.782209	0.070893	0.098422
	H9629	H	0.844715	0.131569	0.395998
	H9630	H	0.794685	0.074338	0.395103
	H9631	H	0.857181	0.137934	0.100357
	Co9632	Co	0.881206	0.177097	0.126681
	Co9633	Co	0.818703	0.114761	0.120705
	Co9634	Co	0.756187	0.052159	0.372400
	Co9635	Co	0.818686	0.114751	0.370333
	C9636	C	0.767138	0.131335	0.420129
	C9637	C	0.829270	0.077017	0.418970
	C9638	C	0.805595	0.135177	0.073649
	C9639	C	0.858174	-0.014401	0.076275
	C9640	C	0.805487	0.134756	0.417444
	C9641	C	0.858263	-0.014348	0.422269
	C9642	C	0.767197	0.131188	0.075839
	C9643	C	0.829210	0.076786	0.073425
	C9644	C	0.807072	0.085274	0.168159
	C9645	C	0.869708	0.146974	0.173256
	C9646	C	0.769303	0.070206	0.325232
	C9647	C	0.831741	0.133014	0.323704
	C9648	C	0.769267	0.070336	0.170096
	C9649	C	0.831819	0.132403	0.169018
	C9650	C	0.807148	0.084902	0.323064
	C9651	C	0.869479	0.147897	0.328180
	C9652	C	0.771606	0.128773	0.497532
	C9653	C	0.832551	0.066128	-0.003823
	C9654	C	0.801044	0.135818	0.495455
	C9655	C	0.854945	-0.003679	-0.001347
	C9656	C	0.803006	0.079442	0.245734
	C9657	C	0.865499	0.141786	0.250163
	C9658	C	0.773696	0.071442	0.247577
	C9659	C	0.836189	0.133734	0.246792
	C9660	C	0.779094	0.128866	0.496995
	C9661	C	0.838222	0.048472	-0.003691
	C9662	C	0.793596	0.133936	0.495817
	C9663	C	0.849296	0.014124	-0.002120
	C9664	C	0.795711	0.074598	0.246112
	C9665	C	0.858203	0.136860	0.248870
	C9666	C	0.781160	0.071878	0.247259
	C9667	C	0.843670	0.134090	0.247546
	C9668	C	0.782872	0.129775	0.580549
	C9669	C	0.841183	0.040476	0.550302
	C9670	C	0.789935	0.132222	0.081263
	C9671	C	0.846701	0.024021	-0.030389
	C9672	C	0.789925	0.132057	0.579869
	C9673	C	0.846577	0.023758	0.551346
	C9674	C	0.782902	0.129903	0.081612
	C9675	C	0.841319	0.040748	-0.030901
	C9676	C	0.791971	0.073120	0.163391
	C9677	C	0.854465	0.134499	0.331201
	C9678	C	0.784944	0.072291	0.330024
	C9679	C	0.847437	0.135222	0.164937
	C9680	C	0.784895	0.071757	0.163999
	C9681	C	0.847407	0.133075	0.330693
	C9682	C	0.792019	0.073659	0.329388
	C9683	C	0.854501	0.136608	0.165608
	N9684	N	0.760693	0.136431	0.449702
	N9685	N	0.824390	0.092742	0.448053
	N9686	N	0.812178	0.132574	0.044549
	N9687	N	0.863050	-0.030160	0.047860
	N9688	N	0.812092	0.132452	0.445905
	N9689	N	0.863069	-0.030123	0.452071
	N9690	N	0.760708	0.136214	0.047200
	N9691	N	0.824369	0.092567	0.043599
	N9692	N	0.812995	0.094131	0.197234
	N9693	N	0.875575	0.156282	0.203111
	N9694	N	0.762750	0.068075	0.296498
	N9695	N	0.825204	0.130861	0.294693
	N9696	N	0.762723	0.068199	0.199185
	N9697	N	0.825260	0.130481	0.197352
	N9698	N	0.813037	0.093995	0.293804
	N9699	N	0.875426	0.156797	0.299927
	H9700	H	0.768345	0.129782	0.845902
	H9701	H	0.830129	0.074028	0.844983
	H9702	H	0.804299	0.136019	0.647622
	H9703	H	0.857260	-0.011358	0.651029
	H9704	H	0.804290	0.135450	0.843347
	H9705	H	0.857505	-0.011210	0.847902
	H9706	H	0.768455	0.130562	0.649921
	H9707	H	0.829935	0.073538	0.647618
	H9708	H	0.805934	0.083217	0.594469
	H9709	H	0.868825	0.144085	0.598078
	H9710	H	0.770565	0.070236	0.899069
	H9711	H	0.832930	0.133619	0.898211
	H9712	H	0.770445	0.071487	0.595791
	H9713	H	0.833020	0.133140	0.593849
	H9714	H	0.806115	0.082407	0.897866
	H9715	H	0.868281	0.146148	0.901447
	H9716	H	0.780186	0.129191	0.847130
	H9717	H	0.838542	0.044125	1.045702
	H9718	H	0.792426	0.133607	0.344945
	H9719	H	0.848177	0.015129	0.403166
	H9720	H	0.792494	0.133493	0.846502
	H9721	H	0.848034	0.014541	1.046839
	H9722	H	0.780141	0.129467	0.345886
	H9723	H	0.838689	0.044688	0.402211
	H9724	H	0.794648	0.074811	0.894975
	H9725	H	0.857170	0.138013	0.599282
	H9726	H	0.782268	0.070540	0.599202
	H9727	H	0.844715	0.131490	0.894970
	H9728	H	0.782259	0.072298	0.894965
	H9729	H	0.844734	0.135789	0.598154
	H9730	H	0.794678	0.073168	0.598770
	H9731	H	0.857087	0.134059	0.896381
	Co9732	Co	0.881213	0.176815	0.626981
	Co9733	Co	0.818688	0.114763	0.620389
	Co9734	Co	0.756208	0.052267	0.872447
	Co9735	Co	0.818710	0.114658	0.870280
	C9736	C	0.767207	0.131315	0.920503
	C9737	C	0.829248	0.076828	0.918753
	C9738	C	0.805528	0.135039	0.572970
	C9739	C	0.858203	-0.014337	0.577298
	C9740	C	0.805523	0.134791	0.918275
	C9741	C	0.858316	-0.014352	0.921913
	C9742	C	0.767206	0.131685	0.575528
	C9743	C	0.829139	0.076698	0.573327
	C9744	C	0.807089	0.085087	0.668622
	C9745	C	0.869753	0.146611	0.672485
	C9746	C	0.769288	0.070240	0.825112
	C9747	C	0.831733	0.133066	0.823477
	C9748	C	0.769226	0.070711	0.670058
	C9749	C	0.831790	0.132760	0.668329
	C9750	C	0.807180	0.084726	0.823718
	C9751	C	0.869485	0.147586	0.827428
	C9752	C	0.771591	0.128621	0.998293
	C9753	C	0.832522	0.066156	0.496294
	C9754	C	0.801128	0.135976	0.996492
	C9755	C	0.854918	-0.003497	0.499570
	C9756	C	0.803024	0.079332	0.746449
	C9757	C	0.865530	0.141471	0.749093
	C9758	C	0.773710	0.071494	0.747331
	C9759	C	0.836161	0.134026	0.746174
	C9760	C	0.779117	0.128900	0.998087
	C9761	C	0.838172	0.048456	0.496675
	C9762	C	0.793633	0.134091	0.997151
	C9763	C	0.849264	0.014164	0.498772
	C9764	C	0.795724	0.074701	0.746883
	C9765	C	0.858210	0.136674	0.747823
	C9766	C	0.781168	0.072070	0.747024
	C9767	C	0.843642	0.134273	0.746615
	C9768	C	0.782846	0.130034	0.913880
	C9769	C	0.840815	0.038578	1.024100
	C9770	C	0.789836	0.132604	0.412283
	C9771	C	0.846272	0.022116	0.445186
	C9772	C	0.789868	0.132498	0.913412
	C9773	C	0.846192	0.021861	1.025096
	C9774	C	0.782795	0.130163	0.412716
	C9775	C	0.840874	0.038816	0.443956
	C9776	C	0.791991	0.074071	0.829519
	C9777	C	0.854478	0.136682	0.664631
	C9778	C	0.784928	0.071695	0.664610
	C9779	C	0.847395	0.133211	0.829652
	C9780	C	0.784912	0.072714	0.829413
	C9781	C	0.847404	0.135424	0.663932
	C9782	C	0.792011	0.073013	0.664374
	C9783	C	0.854461	0.134393	0.830352
	N9784	N	0.760688	0.136218	0.949809
	N9785	N	0.824382	0.092541	0.948005
	N9786	N	0.812117	0.132575	0.543982
	N9787	N	0.863043	-0.030097	0.548060
	N9788	N	0.812142	0.132381	0.946499
	N9789	N	0.863137	-0.030116	0.951938
	N9790	N	0.760736	0.136660	0.547177
	N9791	N	0.824337	0.092562	0.543742
	N9792	N	0.813003	0.094121	0.697359
	N9793	N	0.875617	0.155843	0.702526
	N9794	N	0.762745	0.068265	0.796541
	N9795	N	0.825197	0.130902	0.794432
	N9796	N	0.762712	0.068492	0.699222
	N9797	N	0.825234	0.130732	0.696836
	N9798	N	0.813077	0.093844	0.794028
	N9799	N	0.875465	0.156346	0.799408
	H9800	H	0.766587	0.243598	0.346149
	H9801	H	0.830936	0.193298	0.343024
	H9802	H	0.802936	0.243790	0.147729
	H9803	H	0.866778	0.197756	0.152899
	H9804	H	0.802702	0.243311	0.343594
	H9805	H	0.866908	0.199319	0.348459
	H9806	H	0.766823	0.243098	0.150090
	H9807	H	0.830733	0.191452	0.148126
	H9808	H	0.803396	0.191883	0.093329
	H9809	H	0.866151	0.253370	0.098646
	H9810	H	0.767594	0.182408	0.400404
	H9811	H	0.829868	0.246154	0.398351
	H9812	H	0.767467	0.182933	0.095833
	H9813	H	0.830258	0.244864	0.094476
	H9814	H	0.803512	0.191077	0.397978
	H9815	H	0.865875	0.254329	0.403602
	H9816	H	0.778614	0.242154	0.648770
	H9817	H	0.842520	0.192897	0.647881
	H9818	H	0.791057	0.244740	0.147921
	H9819	H	0.854936	0.196653	0.149638
	H9820	H	0.791001	0.244172	0.647823
	H9821	H	0.854860	0.196882	0.650414
	H9822	H	0.778712	0.242577	0.149177
	H9823	H	0.842613	0.192772	0.148202
	H9824	H	0.791613	0.188113	0.094585
	H9825	H	0.854270	0.251596	0.098235
	H9826	H	0.779356	0.187161	0.398539
	H9827	H	0.841731	0.248712	0.398787
	H9828	H	0.779254	0.186681	0.095942
	H9829	H	0.841888	0.250884	0.096743
	H9830	H	0.791743	0.188087	0.397788
	H9831	H	0.854113	0.249571	0.400448
	Co9832	Co	0.879360	0.280292	0.127981
	Co9833	Co	0.816866	0.217753	0.119353
	Co9834	Co	0.754315	0.155530	0.374228
	Co9835	Co	0.816790	0.217865	0.369849
	C9836	C	0.765464	0.245029	0.421163
	C9837	C	0.829751	0.194268	0.417635
	C9838	C	0.804056	0.242311	0.072966
	C9839	C	0.868011	0.197177	0.077966
	C9840	C	0.803883	0.241965	0.418091
	C9841	C	0.868097	0.197937	0.423266
	C9842	C	0.765641	0.244679	0.075661
	C9843	C	0.829648	0.193277	0.073422
	C9844	C	0.804551	0.193042	0.168005
	C9845	C	0.867185	0.254972	0.173453
	C9846	C	0.766477	0.181047	0.325886
	C9847	C	0.828860	0.244181	0.323527
	C9848	C	0.766402	0.181265	0.170916
	C9849	C	0.829051	0.243488	0.168393
	C9850	C	0.804626	0.192520	0.323185
	C9851	C	0.867057	0.255454	0.328741
	C9852	C	0.769916	0.242447	0.498378
	C9853	C	0.834124	0.191050	-0.003654
	C9854	C	0.799527	0.244853	0.495980
	C9855	C	0.863622	0.198387	-0.000113
	C9856	C	0.800263	0.189610	0.245756
	C9857	C	0.862812	0.252048	0.250540
	C9858	C	0.770733	0.184817	0.248086
	C9859	C	0.833221	0.247554	0.246609
	C9860	C	0.777422	0.242174	0.497346
	C9861	C	0.841636	0.191217	-0.002372
	C9862	C	0.792005	0.245131	0.496314
	C9863	C	0.856140	0.196404	-0.000708
	C9864	C	0.792812	0.187843	0.246111
	C9865	C	0.855323	0.250418	0.249422
	C9866	C	0.778178	0.187066	0.247426
	C9867	C	0.840676	0.249709	0.247842
	C9868	C	0.781229	0.242788	0.581303
	C9869	C	0.845264	0.193183	0.581615
	C9870	C	0.788390	0.244456	0.080842
	C9871	C	0.852326	0.195493	0.082718
	C9872	C	0.788293	0.244079	0.580978
	C9873	C	0.852300	0.195541	0.582890
	C9874	C	0.781315	0.243089	0.081500
	C9875	C	0.845307	0.193081	0.081804
	C9876	C	0.789009	0.187687	0.162128
	C9877	C	0.851589	0.250914	0.164868
	C9878	C	0.781989	0.187406	0.331332
	C9879	C	0.844412	0.249410	0.332222
	C9880	C	0.781923	0.187106	0.162859
	C9881	C	0.844502	0.250480	0.164252
	C9882	C	0.789083	0.187695	0.330731
	C9883	C	0.851489	0.249871	0.332942
	N9884	N	0.759000	0.250093	0.450797
	N9885	N	0.823238	0.199121	0.445890
	N9886	N	0.810495	0.236963	0.043677
	N9887	N	0.874631	0.194824	0.050041
	N9888	N	0.810362	0.236812	0.446715
	N9889	N	0.874669	0.195189	0.452667
	N9890	N	0.759161	0.249710	0.047041
	N9891	N	0.823177	0.198423	0.043530
	N9892	N	0.810868	0.198678	0.196344
	N9893	N	0.873487	0.260731	0.203305
	N9894	N	0.760220	0.174751	0.297388
	N9895	N	0.822637	0.237619	0.293848
	N9896	N	0.760157	0.174855	0.199942
	N9897	N	0.822746	0.237276	0.196350
	N9898	N	0.810922	0.198392	0.293791
	N9899	N	0.873406	0.261018	0.300798
	H9900	H	0.766823	0.244147	0.845507
	H9901	H	0.831050	0.193291	0.843522
	H9902	H	0.802819	0.243709	0.648037
	H9903	H	0.866660	0.197035	0.653269
	H9904	H	0.802784	0.243313	0.842821
	H9905	H	0.866916	0.198850	0.847933
	H9906	H	0.766762	0.243910	0.651295
	H9907	H	0.830718	0.191674	0.647555
	H9908	H	0.803393	0.191406	0.593280
	H9909	H	0.866045	0.253179	0.599085
	H9910	H	0.767624	0.182813	0.900247
	H9911	H	0.829821	0.246083	0.897920
	H9912	H	0.767419	0.183456	0.596932
	H9913	H	0.830155	0.245090	0.593239
	H9914	H	0.803481	0.191246	0.897949
	H9915	H	0.865789	0.254632	0.903872
	H9916	H	0.778600	0.242688	0.845726
	H9917	H	0.842846	0.190025	0.847686
	H9918	H	0.790851	0.245335	0.344904
	H9919	H	0.855176	0.194259	0.348147
	H9920	H	0.790943	0.245089	0.844601
	H9921	H	0.855228	0.193907	0.848846
	H9922	H	0.778491	0.242947	0.345547
	H9923	H	0.842865	0.190132	0.346384
	H9924	H	0.791701	0.188333	0.897488
	H9925	H	0.854211	0.251867	0.598643
	H9926	H	0.779213	0.186777	0.595461
	H9927	H	0.841646	0.248346	0.899813
	H9928	H	0.779311	0.187730	0.898171
	H9929	H	0.841813	0.251061	0.596704
	H9930	H	0.791629	0.187703	0.594699
	H9931	H	0.854011	0.249108	0.901438
	Co9932	Co	0.879272	0.280211	0.628030
	Co9933	Co	0.816793	0.217643	0.619530
	Co9934	Co	0.754361	0.155386	0.874132
	Co9935	Co	0.816830	0.217685	0.869647
	C9936	C	0.765638	0.245211	0.920154
	C9937	C	0.829794	0.194118	0.918076
	C9938	C	0.803938	0.242089	0.573473
	C9939	C	0.867988	0.196780	0.578687
	C9940	C	0.803981	0.242084	0.917514
	C9941	C	0.868090	0.197725	0.922663
	C9942	C	0.765570	0.245218	0.576760
	C9943	C	0.829640	0.193531	0.572901
	C9944	C	0.804557	0.192657	0.667787
	C9945	C	0.867095	0.254894	0.674116
	C9946	C	0.766470	0.181221	0.825870
	C9947	C	0.828790	0.244150	0.823333
	C9948	C	0.766349	0.181726	0.670993
	C9949	C	0.828955	0.243587	0.668087
	C9950	C	0.804581	0.192637	0.823212
	C9951	C	0.866964	0.255550	0.829477
	C9952	C	0.770047	0.242332	0.997733
	C9953	C	0.834102	0.191118	0.495825
	C9954	C	0.799615	0.245053	0.995649
	C9955	C	0.863576	0.198320	0.500586
	C9956	C	0.800245	0.189443	0.745662
	C9957	C	0.862694	0.252066	0.751281
	C9958	C	0.770703	0.185213	0.747903
	C9959	C	0.833158	0.247643	0.746366
	C9960	C	0.777537	0.242279	0.997474
	C9961	C	0.841599	0.191318	0.497020
	C9962	C	0.792126	0.245393	0.996279
	C9963	C	0.856104	0.196416	0.499497
	C9964	C	0.792778	0.187870	0.746019
	C9965	C	0.855240	0.250353	0.750122
	C9966	C	0.778145	0.187323	0.746966
	C9967	C	0.840605	0.249740	0.747941
	C9968	C	0.781260	0.243139	0.912787
	C9969	C	0.845455	0.191540	0.914423
	C9970	C	0.788209	0.244656	0.412157
	C9971	C	0.852476	0.194094	0.415001
	C9972	C	0.788324	0.244613	0.912174
	C9973	C	0.852490	0.193947	0.915134
	C9974	C	0.781147	0.243190	0.412790
	C9975	C	0.845440	0.191670	0.413637
	C9976	C	0.789027	0.188019	0.830444
	C9977	C	0.851519	0.250959	0.665330
	C9978	C	0.781889	0.187166	0.662567
	C9979	C	0.844311	0.249122	0.832828
	C9980	C	0.781944	0.187782	0.830794
	C9981	C	0.844433	0.250583	0.664242
	C9982	C	0.788988	0.187587	0.662035
	C9983	C	0.851413	0.249435	0.833770
	N9984	N	0.759159	0.250101	0.949817
	N9985	N	0.823279	0.198969	0.946131
	N9986	N	0.810396	0.236832	0.543875
	N9987	N	0.874590	0.194482	0.550734
	N9988	N	0.810446	0.236771	0.946142
	N9989	N	0.874686	0.195173	0.951857
	N9990	N	0.759072	0.250287	0.548448
	N9991	N	0.823170	0.198723	0.543333
	N9992	N	0.810862	0.198485	0.696505
	N9993	N	0.873392	0.260647	0.703590
	N9994	N	0.760212	0.174860	0.797502
	N9995	N	0.822573	0.237597	0.793437
	N9996	N	0.760141	0.175095	0.700368
	N9997	N	0.822676	0.237264	0.696068
	N9998	N	0.810881	0.198471	0.793857
	N9999	N	0.873308	0.261073	0.801212
	H10000	H	0.764853	0.356036	0.347622
	H10001	H	0.829306	0.307267	0.343084
	H10002	H	0.801135	0.356593	0.147823
	H10003	H	0.865155	0.305883	0.153597
	H10004	H	0.800877	0.356078	0.344223
	H10005	H	0.865493	0.306185	0.349728
	H10006	H	0.765166	0.356672	0.151763
	H10007	H	0.829035	0.304863	0.147294
	H10008	H	0.801759	0.303971	0.093915
	H10009	H	0.864471	0.366182	0.100587
	H10010	H	0.765858	0.296197	0.400773
	H10011	H	0.828136	0.359535	0.397418
	H10012	H	0.765844	0.296030	0.096623
	H10013	H	0.828600	0.357288	0.093298
	H10014	H	0.801823	0.303963	0.397981
	H10015	H	0.864183	0.367063	0.403655
	H10016	H	0.776696	0.355434	0.346791
	H10017	H	0.840869	0.306297	0.648179
	H10018	H	0.789155	0.357716	-0.155088
	H10019	H	0.853662	0.306119	-0.151313
	H10020	H	0.789048	0.357928	0.345959
	H10021	H	0.853266	0.308144	0.650569
	H10022	H	0.776764	0.355494	-0.153907
	H10023	H	0.841290	0.303785	-0.153769
	H10024	H	0.790005	0.300493	0.095047
	H10025	H	0.852655	0.363567	0.098411
	H10026	H	0.777666	0.300313	0.398715
	H10027	H	0.840025	0.361789	0.399587
	H10028	H	0.777597	0.299838	0.095915
	H10029	H	0.840307	0.362925	0.095764
	H10030	H	0.790079	0.300833	0.398070
	H10031	H	0.852400	0.362477	0.401673
	Co10032	Co	0.877586	0.393935	0.128706
	Co10033	Co	0.815144	0.330862	0.119371
	Co10034	Co	0.752539	0.269125	0.375073
	Co10035	Co	0.815073	0.331459	0.369758
	C10036	C	0.763711	0.357493	0.422041
	C10037	C	0.828067	0.308070	0.417706
	C10038	C	0.802292	0.355212	0.073470
	C10039	C	0.866432	0.304484	0.079629
	C10040	C	0.802124	0.354901	0.418233
	C10041	C	0.866522	0.304727	0.424151
	C10042	C	0.763886	0.357762	0.077599
	C10043	C	0.827983	0.306810	0.072754
	C10044	C	0.802914	0.305501	0.168082
	C10045	C	0.865507	0.367897	0.174785
	C10046	C	0.764742	0.294643	0.325732
	C10047	C	0.827145	0.357613	0.322833
	C10048	C	0.764739	0.294409	0.170836
	C10049	C	0.827365	0.356431	0.167958
	C10050	C	0.802953	0.305528	0.323168
	C10051	C	0.865362	0.368442	0.329670
	C10052	C	0.768179	0.354897	0.499431
	C10053	C	0.832495	0.304848	-0.003949
	C10054	C	0.797742	0.357709	0.496319
	C10055	C	0.862093	0.307683	0.001612
	C10056	C	0.798628	0.302079	0.245895
	C10057	C	0.861127	0.364752	0.251655
	C10058	C	0.769043	0.298150	0.248066
	C10059	C	0.831553	0.360529	0.246106
	C10060	C	0.775659	0.354739	0.498767
	C10061	C	0.839990	0.304730	-0.002355
	C10062	C	0.790246	0.357883	0.497229
	C10063	C	0.854575	0.307908	0.000305
	C10064	C	0.791156	0.300461	0.246409
	C10065	C	0.853661	0.362834	0.250307
	C10066	C	0.776506	0.300087	0.247438
	C10067	C	0.839010	0.362476	0.247643
	C10068	C	0.779359	0.355893	0.414174
	C10069	C	0.843607	0.306259	0.581504
	C10070	C	0.786546	0.357327	-0.087327
	C10071	C	0.850913	0.306305	-0.084758
	C10072	C	0.786435	0.357310	0.413394
	C10073	C	0.850678	0.307466	0.582905
	C10074	C	0.779454	0.355941	-0.086838
	C10075	C	0.843850	0.304879	-0.086023
	C10076	C	0.787360	0.300369	0.162452
	C10077	C	0.849958	0.363003	0.165296
	C10078	C	0.780313	0.300235	0.331368
	C10079	C	0.842709	0.362213	0.332542
	C10080	C	0.780264	0.300116	0.162961
	C10081	C	0.842872	0.362857	0.164075
	C10082	C	0.787403	0.300438	0.330946
	C10083	C	0.849799	0.362529	0.333813
	N10084	N	0.757261	0.362486	0.451298
	N10085	N	0.821558	0.312804	0.446170
	N10086	N	0.808730	0.350092	0.044250
	N10087	N	0.872920	0.299303	0.051224
	N10088	N	0.808626	0.350119	0.446510
	N10089	N	0.872955	0.299358	0.454127
	N10090	N	0.757369	0.362419	0.049054
	N10091	N	0.821532	0.311885	0.043074
	N10092	N	0.809221	0.311555	0.196629
	N10093	N	0.871764	0.374085	0.204494
	N10094	N	0.758485	0.288254	0.297286
	N10095	N	0.820928	0.351001	0.293089
	N10096	N	0.758476	0.288176	0.199970
	N10097	N	0.821069	0.350322	0.195838
	N10098	N	0.809241	0.311597	0.293665
	N10099	N	0.871674	0.374392	0.301616
	H10100	H	0.764922	0.355691	0.846936
	H10101	H	0.829399	0.307201	0.843665
	H10102	H	0.801090	0.356611	0.647752
	H10103	H	0.865125	0.305400	0.653603
	H10104	H	0.801046	0.356544	0.843726
	H10105	H	0.865429	0.306990	0.849381
	H10106	H	0.764973	0.356208	0.651920
	H10107	H	0.829101	0.305539	0.647573
	H10108	H	0.801866	0.304056	0.592959
	H10109	H	0.864600	0.365617	0.599315
	H10110	H	0.766033	0.296102	0.900329
	H10111	H	0.828305	0.359694	0.898027
	H10112	H	0.765880	0.296509	0.596039
	H10113	H	0.828628	0.357891	0.594202
	H10114	H	0.802016	0.303846	0.896580
	H10115	H	0.864194	0.367152	0.904212
	H10116	H	0.776926	0.355297	1.149606
	H10117	H	0.840934	0.306248	1.149360
	H10118	H	0.789250	0.356852	0.648854
	H10119	H	0.853569	0.306614	0.348016
	H10120	H	0.789296	0.357513	1.148598
	H10121	H	0.853316	0.308788	1.151487
	H10122	H	0.776865	0.354389	0.650348
	H10123	H	0.841216	0.304828	0.345513
	H10124	H	0.790238	0.300893	0.897577
	H10125	H	0.852729	0.363859	0.597984
	H10126	H	0.777717	0.299148	0.595979
	H10127	H	0.840126	0.361595	0.899084
	H10128	H	0.777859	0.300381	0.899346
	H10129	H	0.840342	0.363421	0.595548
	H10130	H	0.790090	0.299799	0.594687
	H10131	H	0.852488	0.362103	0.901189
	Co10132	Co	0.877707	0.393671	0.628238
	Co10133	Co	0.815182	0.331511	0.619641
	Co10134	Co	0.752723	0.269168	0.874921
	Co10135	Co	0.815186	0.331563	0.869543
	C10136	C	0.763775	0.357426	0.921725
	C10137	C	0.828164	0.308024	0.917734
	C10138	C	0.802231	0.355156	0.573331
	C10139	C	0.866369	0.304237	0.579108
	C10140	C	0.802247	0.355175	0.918244
	C10141	C	0.866544	0.305102	0.924172
	C10142	C	0.763768	0.357633	0.577360
	C10143	C	0.827975	0.307331	0.573057
	C10144	C	0.803033	0.305647	0.667345
	C10145	C	0.865618	0.367658	0.674373
	C10146	C	0.764891	0.294594	0.826080
	C10147	C	0.827243	0.357652	0.823361
	C10148	C	0.764819	0.294767	0.670861
	C10149	C	0.827395	0.356814	0.668294
	C10150	C	0.803109	0.305446	0.822477
	C10151	C	0.865417	0.368404	0.829694
	C10152	C	0.768262	0.355112	0.999105
	C10153	C	0.832426	0.305178	0.495754
	C10154	C	0.797827	0.357938	0.996199
	C10155	C	0.862043	0.307280	0.500927
	C10156	C	0.798757	0.301962	0.745220
	C10157	C	0.861208	0.364501	0.751255
	C10158	C	0.769184	0.298065	0.748129
	C10159	C	0.831632	0.360702	0.746192
	C10160	C	0.775745	0.355102	0.998055
	C10161	C	0.839930	0.305078	0.496740
	C10162	C	0.790346	0.358092	0.996774
	C10163	C	0.854531	0.307796	0.499512
	C10164	C	0.791303	0.300108	0.746019
	C10165	C	0.853745	0.362771	0.749649
	C10166	C	0.776622	0.299833	0.747730
	C10167	C	0.839085	0.362548	0.747130
	C10168	C	0.779548	0.355808	1.082002
	C10169	C	0.843658	0.306168	1.082515
	C10170	C	0.786550	0.356648	0.581916
	C10171	C	0.850843	0.306748	0.414668
	C10172	C	0.786632	0.357239	1.081381
	C10173	C	0.850726	0.307738	1.083903
	C10174	C	0.779464	0.355222	0.582774
	C10175	C	0.843773	0.305502	0.413187
	C10176	C	0.787552	0.300462	0.830624
	C10177	C	0.850025	0.363234	0.664734
	C10178	C	0.780371	0.299550	0.663062
	C10179	C	0.842811	0.362140	0.831918
	C10180	C	0.780437	0.300232	0.831541
	C10181	C	0.842928	0.363083	0.663458
	C10182	C	0.787477	0.299699	0.662207
	C10183	C	0.849904	0.362303	0.833303
	N10184	N	0.757301	0.362303	0.951738
	N10185	N	0.821645	0.312636	0.945657
	N10186	N	0.808689	0.350162	0.543653
	N10187	N	0.872861	0.299101	0.551370
	N10188	N	0.808710	0.350108	0.946772
	N10189	N	0.872999	0.299679	0.953825
	N10190	N	0.757293	0.362623	0.548941
	N10191	N	0.821499	0.312350	0.543658
	N10192	N	0.809286	0.311953	0.695918
	N10193	N	0.871849	0.374062	0.704524
	N10194	N	0.758585	0.288644	0.797771
	N10195	N	0.821006	0.351304	0.793801
	N10196	N	0.758551	0.288754	0.700295
	N10197	N	0.821093	0.350856	0.696558
	N10198	N	0.809344	0.311817	0.793226
	N10199	N	0.871720	0.374476	0.801710
	H10200	H	0.763113	0.467577	0.348653
	H10201	H	0.827622	0.419507	0.343427
	H10202	H	0.799332	0.468889	0.148330
	H10203	H	0.863346	0.418154	0.154610
	H10204	H	0.799161	0.468279	0.343979
	H10205	H	0.863736	0.419793	0.349254
	H10206	H	0.763383	0.469659	0.152966
	H10207	H	0.827273	0.417301	0.146976
	H10208	H	0.799931	0.416696	0.094204
	H10209	H	0.862638	0.478793	0.098677
	H10210	H	0.764099	0.408403	0.401945
	H10211	H	0.826373	0.471995	0.396804
	H10212	H	0.763992	0.408849	0.098462
	H10213	H	0.826747	0.470045	0.093721
	H10214	H	0.800112	0.416135	0.397949
	H10215	H	0.862400	0.479400	0.402839
	H10216	H	0.775195	0.466986	0.651347
	H10217	H	0.839512	0.417186	0.345677
	H10218	H	0.787329	0.469696	-0.154690
	H10219	H	0.851819	0.418920	-0.151275
	H10220	H	0.787563	0.469496	0.649419
	H10221	H	0.851880	0.419615	0.347579
	H10222	H	0.774968	0.467187	-0.152938
	H10223	H	0.839474	0.416702	-0.153651
	H10224	H	0.788145	0.412965	0.095904
	H10225	H	0.850636	0.475043	0.400967
	H10226	H	0.775922	0.412787	0.400356
	H10227	H	0.838458	0.475979	0.095827
	H10228	H	0.775720	0.412281	0.097194
	H10229	H	0.838204	0.474163	0.398901
	H10230	H	0.788307	0.413354	0.398869
	H10231	H	0.850855	0.476612	0.097694
	Co10232	Co	0.875809	0.506495	0.128297
	Co10233	Co	0.813331	0.443434	0.119498
	Co10234	Co	0.750777	0.381433	0.375663
	Co10235	Co	0.813336	0.443585	0.370019
	C10236	C	0.762021	0.469340	0.423676
	C10237	C	0.826403	0.420529	0.418142
	C10238	C	0.800447	0.467685	0.073780
	C10239	C	0.864599	0.417302	0.079985
	C10240	C	0.800388	0.467227	0.418377
	C10241	C	0.864865	0.418041	0.423910
	C10242	C	0.762127	0.470361	0.078205
	C10243	C	0.826193	0.419346	0.072679
	C10244	C	0.801114	0.418167	0.168618
	C10245	C	0.863693	0.480521	0.173483
	C10246	C	0.762971	0.407055	0.327481
	C10247	C	0.825384	0.469850	0.322658
	C10248	C	0.762895	0.407327	0.172456
	C10249	C	0.825574	0.468961	0.167806
	C10250	C	0.801211	0.417785	0.323499
	C10251	C	0.863574	0.480933	0.328816
	C10252	C	0.766476	0.467237	0.500893
	C10253	C	0.830669	0.417282	-0.003986
	C10254	C	0.796050	0.470225	0.496587
	C10255	C	0.860266	0.420275	0.001771
	C10256	C	0.796846	0.414621	0.246388
	C10257	C	0.859346	0.477307	0.250685
	C10258	C	0.767235	0.410759	0.249595
	C10259	C	0.829749	0.473058	0.245847
	C10260	C	0.773970	0.467162	0.499809
	C10261	C	0.838194	0.417213	-0.002287
	C10262	C	0.788550	0.470330	0.497762
	C10263	C	0.852764	0.420432	0.000442
	C10264	C	0.789358	0.412944	0.247116
	C10265	C	0.851862	0.475548	0.249589
	C10266	C	0.774698	0.412707	0.248784
	C10267	C	0.837222	0.475064	0.247144
	C10268	C	0.777798	0.467744	0.583726
	C10269	C	0.842117	0.417996	0.413400
	C10270	C	0.784725	0.469308	-0.086961
	C10271	C	0.849111	0.419009	-0.084519
	C10272	C	0.784866	0.469157	0.582509
	C10273	C	0.849190	0.419472	0.414626
	C10274	C	0.777663	0.467879	-0.086060
	C10275	C	0.842055	0.417546	-0.085974
	C10276	C	0.785521	0.412818	0.163407
	C10277	C	0.848022	0.475064	0.333315
	C10278	C	0.778533	0.412891	0.332689
	C10279	C	0.841069	0.475708	0.163488
	C10280	C	0.778426	0.412514	0.164104
	C10281	C	0.840937	0.474731	0.332205
	C10282	C	0.785625	0.413138	0.331844
	C10283	C	0.848152	0.475967	0.164615
	N10284	N	0.755545	0.474363	0.452960
	N10285	N	0.819906	0.425220	0.446223
	N10286	N	0.806904	0.462609	0.044120
	N10287	N	0.871130	0.412638	0.051977
	N10288	N	0.806905	0.462427	0.446400
	N10289	N	0.871309	0.412722	0.453741
	N10290	N	0.755613	0.474992	0.050386
	N10291	N	0.819724	0.424592	0.043060
	N10292	N	0.807407	0.424194	0.196825
	N10293	N	0.869973	0.486653	0.203223
	N10294	N	0.756698	0.400779	0.298918
	N10295	N	0.819154	0.463259	0.293145
	N10296	N	0.756654	0.400896	0.201627
	N10297	N	0.819264	0.462799	0.195857
	N10298	N	0.807487	0.423892	0.294172
	N10299	N	0.869896	0.486967	0.300697
	H10300	H	0.763003	0.467224	0.848202
	H10301	H	0.827597	0.419799	0.843775
	H10302	H	0.799461	0.469572	0.647978
	H10303	H	0.863445	0.418381	0.653262
	H10304	H	0.799209	0.469277	0.843959
	H10305	H	0.863663	0.419779	0.850116
	H10306	H	0.763330	0.469556	0.653411
	H10307	H	0.827389	0.418243	0.647736
	H10308	H	0.800088	0.416626	0.593806
	H10309	H	0.862833	0.478495	0.599279
	H10310	H	0.764302	0.408214	0.902097
	H10311	H	0.826570	0.472103	0.897688
	H10312	H	0.764106	0.409039	0.596851
	H10313	H	0.826877	0.470659	0.593537
	H10314	H	0.800286	0.416394	0.897977
	H10315	H	0.862481	0.479491	0.903656
	H10316	H	0.775137	0.467717	1.150597
	H10317	H	0.839102	0.418755	1.149417
	H10318	H	0.787312	0.470439	0.346210
	H10319	H	0.851605	0.421049	0.651127
	H10320	H	0.787501	0.470277	1.149238
	H10321	H	0.851470	0.421140	1.151829
	H10322	H	0.774957	0.467865	0.347924
	H10323	H	0.839260	0.418708	0.649224
	H10324	H	0.788335	0.412629	0.595095
	H10325	H	0.850993	0.475887	0.597890
	H10326	H	0.776077	0.412314	0.900326
	H10327	H	0.838358	0.473890	0.898988
	H10328	H	0.775953	0.411589	0.596443
	H10329	H	0.838586	0.475499	0.595593
	H10330	H	0.788455	0.413348	0.898903
	H10331	H	0.850796	0.474498	0.900609
	Co10332	Co	0.875912	0.506485	0.628113
	Co10333	Co	0.813447	0.443975	0.619452
	Co10334	Co	0.750903	0.381370	0.875993
	Co10335	Co	0.813363	0.444371	0.869540
	C10336	C	0.761952	0.469093	0.922970
	C10337	C	0.826371	0.420633	0.918023
	C10338	C	0.800540	0.467928	0.573386
	C10339	C	0.864712	0.417404	0.579106
	C10340	C	0.800390	0.467698	0.918497
	C10341	C	0.864728	0.418004	0.924860
	C10342	C	0.762132	0.470229	0.578862
	C10343	C	0.826295	0.419917	0.572958
	C10344	C	0.801241	0.418394	0.668298
	C10345	C	0.863848	0.480306	0.674057
	C10346	C	0.763141	0.406702	0.827315
	C10347	C	0.825490	0.470086	0.823007
	C10348	C	0.763031	0.407241	0.672134
	C10349	C	0.825651	0.469392	0.668024
	C10350	C	0.801345	0.418196	0.823353
	C10351	C	0.863680	0.480832	0.829040
	C10352	C	0.766444	0.467158	1.000086
	C10353	C	0.830778	0.417639	0.495951
	C10354	C	0.796014	0.470353	0.996558
	C10355	C	0.860375	0.420484	0.500777
	C10356	C	0.796986	0.414641	0.746267
	C10357	C	0.859452	0.477078	0.750808
	C10358	C	0.767411	0.410488	0.749204
	C10359	C	0.829881	0.473183	0.746020
	C10360	C	0.773949	0.467133	0.998978
	C10361	C	0.838277	0.417475	0.497164
	C10362	C	0.788517	0.470432	0.997202
	C10363	C	0.852872	0.420674	0.499502
	C10364	C	0.789531	0.412714	0.747067
	C10365	C	0.851999	0.475157	0.749462
	C10366	C	0.774872	0.412195	0.748388
	C10367	C	0.837353	0.474888	0.747142
	C10368	C	0.777757	0.468055	1.083049
	C10369	C	0.841860	0.418665	1.082832
	C10370	C	0.784724	0.469725	0.413865
	C10371	C	0.849036	0.420242	0.583398
	C10372	C	0.784817	0.469609	1.082079
	C10373	C	0.848909	0.420229	1.083963
	C10374	C	0.777664	0.468272	0.414786
	C10375	C	0.841972	0.418785	0.582194
	C10376	C	0.785726	0.412317	0.662985
	C10377	C	0.848287	0.475467	0.664626
	C10378	C	0.778684	0.412527	0.832525
	C10379	C	0.841076	0.474336	0.832081
	C10380	C	0.778620	0.412080	0.663735
	C10381	C	0.841184	0.475364	0.663428
	C10382	C	0.785782	0.412785	0.831781
	C10383	C	0.848168	0.474652	0.833255
	N10384	N	0.755504	0.474309	0.952892
	N10385	N	0.819854	0.425453	0.945846
	N10386	N	0.806989	0.462833	0.543820
	N10387	N	0.871203	0.412268	0.551174
	N10388	N	0.806885	0.462774	0.946764
	N10389	N	0.871201	0.412983	0.954465
	N10390	N	0.755638	0.474962	0.550647
	N10391	N	0.819830	0.424858	0.543654
	N10392	N	0.807524	0.424569	0.696290
	N10393	N	0.870073	0.486714	0.704006
	N10394	N	0.756847	0.400659	0.799011
	N10395	N	0.819238	0.463896	0.793328
	N10396	N	0.756773	0.401017	0.701653
	N10397	N	0.819348	0.463380	0.696202
	N10398	N	0.807576	0.424526	0.793729
	N10399	N	0.869973	0.486987	0.801070
	H10400	H	0.761308	0.579854	0.349398
	H10401	H	0.825924	0.531278	0.343843
	H10402	H	0.797701	0.582320	0.148221
	H10403	H	0.861569	0.531096	0.153185
	H10404	H	0.797398	0.580588	0.343921
	H10405	H	0.861993	0.532321	0.349499
	H10406	H	0.761544	0.582444	0.153799
	H10407	H	0.825640	0.530135	0.148206
	H10408	H	0.798172	0.529372	0.094026
	H10409	H	0.861035	0.591025	0.099324
	H10410	H	0.762545	0.519862	0.403602
	H10411	H	0.824781	0.583619	0.398879
	H10412	H	0.762168	0.521934	0.098659
	H10413	H	0.825028	0.582703	0.094070
	H10414	H	0.798389	0.528364	0.397682
	H10415	H	0.860705	0.591850	0.403222
	H10416	H	0.773484	0.579161	0.651681
	H10417	H	0.837755	0.529512	0.346765
	H10418	H	0.785759	0.581723	0.150015
	H10419	H	0.849749	0.533683	0.150771
	H10420	H	0.785802	0.581511	0.649424
	H10421	H	0.850135	0.532001	0.348417
	H10422	H	0.773428	0.579547	0.151628
	H10423	H	0.837357	0.531137	0.148882
	H10424	H	0.786389	0.525087	0.095379
	H10425	H	0.849018	0.586794	0.400999
	H10426	H	0.774210	0.525002	0.400783
	H10427	H	0.836787	0.588001	0.096431
	H10428	H	0.774046	0.524370	0.097266
	H10429	H	0.836614	0.586121	0.399212
	H10430	H	0.786648	0.525830	0.399198
	H10431	H	0.849165	0.588908	0.097794
	Co10432	Co	0.874129	0.618846	0.127826
	Co10433	Co	0.811628	0.556062	0.119461
	Co10434	Co	0.749146	0.493233	0.376633
	Co10435	Co	0.811642	0.555809	0.370079
	C10436	C	0.760247	0.581662	0.424177
	C10437	C	0.824665	0.532504	0.418807
	C10438	C	0.798768	0.580329	0.073375
	C10439	C	0.862844	0.530000	0.079067
	C10440	C	0.798681	0.579527	0.418468
	C10441	C	0.863058	0.530490	0.424077
	C10442	C	0.760310	0.583247	0.078959
	C10443	C	0.824483	0.531898	0.073199
	C10444	C	0.799374	0.530614	0.168332
	C10445	C	0.862064	0.592807	0.173752
	C10446	C	0.761341	0.518869	0.328527
	C10447	C	0.823731	0.581957	0.323882
	C10448	C	0.761166	0.519999	0.173440
	C10449	C	0.823869	0.581410	0.168707
	C10450	C	0.799477	0.530199	0.323469
	C10451	C	0.861915	0.593194	0.328730
	C10452	C	0.764742	0.579636	0.501075
	C10453	C	0.828955	0.529480	-0.004094
	C10454	C	0.794327	0.582489	0.496484
	C10455	C	0.858493	0.532932	0.000672
	C10456	C	0.795112	0.526965	0.246391
	C10457	C	0.857683	0.589520	0.250749
	C10458	C	0.765556	0.522973	0.250578
	C10459	C	0.828107	0.585255	0.246779
	C10460	C	0.772241	0.579371	0.499930
	C10461	C	0.836445	0.529440	-0.002939
	C10462	C	0.786815	0.582532	0.497522
	C10463	C	0.851002	0.532918	-0.000657
	C10464	C	0.787637	0.525202	0.247315
	C10465	C	0.850231	0.587661	0.249587
	C10466	C	0.773006	0.524906	0.249380
	C10467	C	0.835572	0.587160	0.247742
	C10468	C	0.776054	0.579725	0.583766
	C10469	C	0.840343	0.530373	0.414381
	C10470	C	0.783065	0.581590	0.082903
	C10471	C	0.847165	0.532765	0.083054
	C10472	C	0.783116	0.581253	0.582475
	C10473	C	0.847412	0.531803	0.415267
	C10474	C	0.775991	0.580249	0.083663
	C10475	C	0.840100	0.531090	0.082029
	C10476	C	0.783810	0.525004	0.163393
	C10477	C	0.846408	0.587018	0.333354
	C10478	C	0.776837	0.525195	0.333244
	C10479	C	0.839407	0.587766	0.163884
	C10480	C	0.776724	0.524789	0.164445
	C10481	C	0.839311	0.586726	0.332458
	C10482	C	0.783927	0.525390	0.332354
	C10483	C	0.846503	0.588118	0.164792
	N10484	N	0.753795	0.586868	0.453928
	N10485	N	0.818171	0.537331	0.446576
	N10486	N	0.805235	0.575231	0.043756
	N10487	N	0.869359	0.525208	0.051316
	N10488	N	0.805190	0.574698	0.446626
	N10489	N	0.869523	0.525247	0.453628
	N10490	N	0.753790	0.587771	0.050697
	N10491	N	0.818029	0.537016	0.043723
	N10492	N	0.805661	0.536728	0.196612
	N10493	N	0.868297	0.599124	0.203504
	N10494	N	0.755043	0.512805	0.300288
	N10495	N	0.817507	0.575451	0.294093
	N10496	N	0.754924	0.513512	0.203027
	N10497	N	0.817582	0.575200	0.196862
	N10498	N	0.805737	0.536369	0.294021
	N10499	N	0.868201	0.599370	0.300899
	H10500	H	0.761278	0.579866	0.848867
	H10501	H	0.825813	0.531344	0.843836
	H10502	H	0.797679	0.581900	0.648343
	H10503	H	0.861740	0.530784	0.654282
	H10504	H	0.797383	0.580226	0.843823
	H10505	H	0.861922	0.532136	0.849014
	H10506	H	0.761634	0.582200	0.653744
	H10507	H	0.825631	0.530411	0.647977
	H10508	H	0.798276	0.529240	0.593838
	H10509	H	0.861000	0.590700	0.598808
	H10510	H	0.762626	0.519935	0.902734
	H10511	H	0.824776	0.583969	0.897682
	H10512	H	0.762317	0.521820	0.599099
	H10513	H	0.825047	0.583023	0.593675
	H10514	H	0.798577	0.528252	0.898678
	H10515	H	0.860755	0.591665	0.902938
	H10516	H	0.773155	0.580308	0.847835
	H10517	H	0.837707	0.528749	0.845481
	H10518	H	0.785592	0.582842	0.345681
	H10519	H	0.849821	0.533333	0.651793
	H10520	H	0.785512	0.582601	0.846337
	H10521	H	0.850052	0.531234	0.847465
	H10522	H	0.773225	0.580505	0.348206
	H10523	H	0.837493	0.530546	0.650112
	H10524	H	0.786461	0.524509	0.596105
	H10525	H	0.849194	0.588606	0.597989
	H10526	H	0.774300	0.524804	0.901138
	H10527	H	0.836619	0.586071	0.899238
	H10528	H	0.774078	0.523864	0.598012
	H10529	H	0.836798	0.587889	0.596079
	H10530	H	0.786705	0.525438	0.899665
	H10531	H	0.849019	0.586584	0.901339
	Co10532	Co	0.874069	0.618859	0.627785
	Co10533	Co	0.811677	0.556211	0.619591
	Co10534	Co	0.749094	0.493213	0.876584
	Co10535	Co	0.811648	0.556304	0.869745
	C10536	C	0.760176	0.581763	0.923484
	C10537	C	0.824591	0.532466	0.917843
	C10538	C	0.798785	0.580263	0.573583
	C10539	C	0.862933	0.529843	0.579270
	C10540	C	0.798610	0.579500	0.918228
	C10541	C	0.863014	0.530623	0.923829
	C10542	C	0.760416	0.582885	0.579433
	C10543	C	0.824537	0.531991	0.573701
	C10544	C	0.799450	0.530572	0.668552
	C10545	C	0.862064	0.592586	0.673733
	C10546	C	0.761387	0.518653	0.829115
	C10547	C	0.823738	0.582198	0.823309
	C10548	C	0.761243	0.519634	0.673557
	C10549	C	0.823898	0.581745	0.668287
	C10550	C	0.799586	0.530171	0.823511
	C10551	C	0.861938	0.593053	0.828836
	C10552	C	0.764651	0.579941	1.000771
	C10553	C	0.829011	0.529646	0.496888
	C10554	C	0.794276	0.582578	0.996487
	C10555	C	0.858594	0.532930	0.501209
	C10556	C	0.795203	0.526729	0.746551
	C10557	C	0.857701	0.589327	0.750759
	C10558	C	0.765613	0.522641	0.750989
	C10559	C	0.828122	0.585432	0.746496
	C10560	C	0.772152	0.579732	0.999775
	C10561	C	0.836512	0.529635	0.498239
	C10562	C	0.786762	0.582721	0.997904
	C10563	C	0.851097	0.533048	0.500276
	C10564	C	0.787736	0.524782	0.747713
	C10565	C	0.850235	0.587421	0.749775
	C10566	C	0.773086	0.524424	0.749759
	C10567	C	0.835601	0.587116	0.747556
	C10568	C	0.775844	0.580639	0.914973
	C10569	C	0.840284	0.529668	0.913312
	C10570	C	0.783005	0.582019	0.413672
	C10571	C	0.847252	0.532454	0.584015
	C10572	C	0.782918	0.581911	0.914082
	C10573	C	0.847342	0.531329	0.914510
	C10574	C	0.775944	0.580612	0.415029
	C10575	C	0.840186	0.530872	0.583030
	C10576	C	0.783889	0.524528	0.663913
	C10577	C	0.846512	0.587819	0.664890
	C10578	C	0.776921	0.524740	0.833583
	C10579	C	0.839328	0.586681	0.832493
	C10580	C	0.776794	0.524241	0.664900
	C10581	C	0.839422	0.587596	0.663650
	C10582	C	0.784019	0.524960	0.832516
	C10583	C	0.846419	0.586818	0.833679
	N10584	N	0.753698	0.586946	0.953121
	N10585	N	0.818112	0.537463	0.946255
	N10586	N	0.805254	0.575158	0.544007
	N10587	N	0.869441	0.524928	0.551144
	N10588	N	0.805119	0.574726	0.946241
	N10589	N	0.869456	0.525521	0.954005
	N10590	N	0.753904	0.587559	0.551380
	N10591	N	0.818077	0.536991	0.544116
	N10592	N	0.805731	0.536887	0.696627
	N10593	N	0.868318	0.598841	0.703265
	N10594	N	0.755096	0.512582	0.800421
	N10595	N	0.817477	0.575981	0.793602
	N10596	N	0.754996	0.513204	0.703311
	N10597	N	0.817594	0.575630	0.696368
	N10598	N	0.805801	0.536652	0.793853
	N10599	N	0.868232	0.599126	0.800852
	H10600	H	0.759487	0.692739	0.349477
	H10601	H	0.824032	0.643500	0.344751
	H10602	H	0.795888	0.694548	0.148545
	H10603	H	0.859949	0.643628	0.153062
	H10604	H	0.795621	0.692855	0.343775
	H10605	H	0.860082	0.644112	0.349184
	H10606	H	0.759829	0.695038	0.154131
	H10607	H	0.823877	0.643350	0.148895
	H10608	H	0.796390	0.642205	0.093803
	H10609	H	0.859176	0.703616	0.099085
	H10610	H	0.760800	0.632140	0.404195
	H10611	H	0.823010	0.695969	0.398764
	H10612	H	0.760383	0.635097	0.099744
	H10613	H	0.823203	0.695738	0.094299
	H10614	H	0.796728	0.640550	0.397961
	H10615	H	0.858892	0.704235	0.403114
	H10616	H	0.771357	0.692998	0.348046
	H10617	H	0.835887	0.641376	0.347384
	H10618	H	0.783760	0.695151	-0.154035
	H10619	H	0.848068	0.645739	0.150714
	H10620	H	0.783742	0.695191	0.346506
	H10621	H	0.848260	0.643948	0.348954
	H10622	H	0.771377	0.692641	-0.151576
	H10623	H	0.835698	0.643332	0.149627
	H10624	H	0.784624	0.637196	0.096461
	H10625	H	0.847201	0.699577	0.401228
	H10626	H	0.772485	0.637913	0.402103
	H10627	H	0.834965	0.700354	0.096342
	H10628	H	0.772208	0.636514	0.098805
	H10629	H	0.834767	0.698782	0.399628
	H10630	H	0.784871	0.638457	0.399722
	H10631	H	0.847362	0.701327	0.097651
	Co10632	Co	0.872344	0.731117	0.127727
	Co10633	Co	0.809839	0.668744	0.119837
	Co10634	Co	0.747376	0.605549	0.376945
	Co10635	Co	0.809841	0.668422	0.370159
	C10636	C	0.758407	0.694585	0.424202
	C10637	C	0.822804	0.644859	0.418867
	C10638	C	0.796973	0.692701	0.073567
	C10639	C	0.861186	0.642193	0.078866
	C10640	C	0.796853	0.692072	0.418217
	C10641	C	0.861190	0.642539	0.423972
	C10642	C	0.758586	0.695853	0.079638
	C10643	C	0.822731	0.644595	0.073650
	C10644	C	0.797610	0.643345	0.168251
	C10645	C	0.860228	0.705310	0.173741
	C10646	C	0.759563	0.631289	0.329496
	C10647	C	0.821938	0.694431	0.324009
	C10648	C	0.759355	0.632766	0.174213
	C10649	C	0.822032	0.694335	0.168695
	C10650	C	0.797777	0.642424	0.323245
	C10651	C	0.860112	0.705637	0.328907
	C10652	C	0.762881	0.692335	0.501238
	C10653	C	0.827216	0.642198	-0.003561
	C10654	C	0.792501	0.694936	0.496478
	C10655	C	0.856806	0.645046	0.000556
	C10656	C	0.793372	0.639353	0.246284
	C10657	C	0.855857	0.701974	0.250821
	C10658	C	0.763759	0.635557	0.251384
	C10659	C	0.826299	0.697906	0.246928
	C10660	C	0.770395	0.692013	0.499900
	C10661	C	0.834700	0.642163	-0.002412
	C10662	C	0.784987	0.694975	0.497654
	C10663	C	0.849298	0.645274	-0.000544
	C10664	C	0.785905	0.637607	0.247670
	C10665	C	0.848396	0.700158	0.249707
	C10666	C	0.771227	0.637370	0.250463
	C10667	C	0.833752	0.699808	0.247808
	C10668	C	0.774070	0.693139	0.414872
	C10669	C	0.838475	0.642315	0.414709
	C10670	C	0.781171	0.694536	-0.086326
	C10671	C	0.845470	0.644802	0.083142
	C10672	C	0.781135	0.694586	0.413876
	C10673	C	0.845534	0.643763	0.415744
	C10674	C	0.774109	0.692958	-0.085027
	C10675	C	0.838382	0.643558	0.082459
	C10676	C	0.782047	0.637255	0.164248
	C10677	C	0.844576	0.699605	0.333642
	C10678	C	0.775082	0.637764	0.334224
	C10679	C	0.837576	0.700270	0.163929
	C10680	C	0.774948	0.637049	0.165560
	C10681	C	0.837471	0.699434	0.332668
	C10682	C	0.782188	0.637992	0.332676
	C10683	C	0.844678	0.700543	0.164777
	N10684	N	0.751964	0.700171	0.453666
	N10685	N	0.816299	0.649711	0.447073
	N10686	N	0.803426	0.687591	0.043898
	N10687	N	0.867684	0.637400	0.050498
	N10688	N	0.803362	0.687240	0.446571
	N10689	N	0.867668	0.637648	0.453631
	N10690	N	0.752099	0.700964	0.051449
	N10691	N	0.816281	0.649640	0.044128
	N10692	N	0.803913	0.649344	0.196297
	N10693	N	0.866472	0.711589	0.203546
	N10694	N	0.753267	0.625260	0.301139
	N10695	N	0.815705	0.688134	0.294353
	N10696	N	0.753140	0.626094	0.203812
	N10697	N	0.815757	0.688083	0.196930
	N10698	N	0.804008	0.648864	0.293457
	N10699	N	0.866393	0.711807	0.300772
	H10700	H	0.759457	0.692520	0.849404
	H10701	H	0.824050	0.643511	0.843339
	H10702	H	0.795869	0.694496	0.648126
	H10703	H	0.859848	0.643146	0.653870
	H10704	H	0.795597	0.692893	0.843618
	H10705	H	0.860160	0.644146	0.849034
	H10706	H	0.759750	0.694880	0.653641
	H10707	H	0.823802	0.643097	0.648581
	H10708	H	0.796459	0.641825	0.593867
	H10709	H	0.859131	0.703339	0.599527
	H10710	H	0.760789	0.632430	0.903438
	H10711	H	0.822905	0.696566	0.898934
	H10712	H	0.760459	0.634119	0.599326
	H10713	H	0.823199	0.695749	0.594884
	H10714	H	0.796734	0.640416	0.898346
	H10715	H	0.858915	0.703903	0.903887
	H10716	H	0.771619	0.692339	1.151269
	H10717	H	0.835973	0.641427	0.845987
	H10718	H	0.784044	0.693924	0.648977
	H10719	H	0.848021	0.645485	0.651479
	H10720	H	0.784026	0.694188	1.149233
	H10721	H	0.848309	0.644181	0.847997
	H10722	H	0.771631	0.692056	0.651011
	H10723	H	0.835650	0.643153	0.650301
	H10724	H	0.784952	0.637904	0.899435
	H10725	H	0.847300	0.700890	0.598076
	H10726	H	0.772337	0.636275	0.598052
	H10727	H	0.834760	0.699029	0.900229
	H10728	H	0.772544	0.637521	0.901103
	H10729	H	0.834937	0.700288	0.597017
	H10730	H	0.784733	0.636519	0.596187
	H10731	H	0.847168	0.699547	0.901679
	Co10732	Co	0.872268	0.731168	0.627856
	Co10733	Co	0.809814	0.668871	0.619636
	Co10734	Co	0.747307	0.605981	0.877163
	Co10735	Co	0.809873	0.668333	0.870044
	C10736	C	0.758428	0.694709	0.924107
	C10737	C	0.822845	0.644932	0.918287
	C10738	C	0.796982	0.692880	0.573558
	C10739	C	0.861075	0.642069	0.579224
	C10740	C	0.796835	0.691831	0.918222
	C10741	C	0.861300	0.642554	0.923393
	C10742	C	0.758542	0.695692	0.579177
	C10743	C	0.822683	0.644548	0.574350
	C10744	C	0.797636	0.643041	0.668466
	C10745	C	0.860220	0.705059	0.673965
	C10746	C	0.759625	0.631299	0.829201
	C10747	C	0.821865	0.694655	0.824395
	C10748	C	0.759449	0.632409	0.674087
	C10749	C	0.822017	0.694323	0.669292
	C10750	C	0.797785	0.642222	0.823544
	C10751	C	0.860108	0.705439	0.829355
	C10752	C	0.762900	0.692400	1.001349
	C10753	C	0.827145	0.642053	0.497090
	C10754	C	0.792504	0.694936	0.996535
	C10755	C	0.856727	0.644848	0.501096
	C10756	C	0.793428	0.639036	0.746411
	C10757	C	0.855854	0.701690	0.751188
	C10758	C	0.763825	0.635343	0.750898
	C10759	C	0.826255	0.698110	0.747580
	C10760	C	0.770411	0.692080	0.999947
	C10761	C	0.834654	0.641926	0.498490
	C10762	C	0.784992	0.695044	0.997513
	C10763	C	0.849222	0.644994	0.500253
	C10764	C	0.785959	0.637194	0.747418
	C10765	C	0.848393	0.699917	0.750140
	C10766	C	0.771311	0.637066	0.749529
	C10767	C	0.833709	0.699764	0.748736
	C10768	C	0.774238	0.692763	1.083725
	C10769	C	0.838543	0.642433	0.913849
	C10770	C	0.781312	0.693808	0.582433
	C10771	C	0.845406	0.644643	0.584080
	C10772	C	0.781313	0.694006	1.082466
	C10773	C	0.845621	0.643915	0.914886
	C10774	C	0.774237	0.692511	0.583509
	C10775	C	0.838344	0.643287	0.583363
	C10776	C	0.782247	0.637625	0.832438
	C10777	C	0.844647	0.700301	0.665470
	C10778	C	0.775037	0.636565	0.664754
	C10779	C	0.837456	0.699429	0.833332
	C10780	C	0.775158	0.637491	0.833377
	C10781	C	0.837549	0.700174	0.664836
	C10782	C	0.782114	0.636728	0.663806
	C10783	C	0.844564	0.699574	0.833912
	N10784	N	0.751995	0.700314	0.954126
	N10785	N	0.816352	0.649710	0.946430
	N10786	N	0.803451	0.687886	0.544010
	N10787	N	0.867597	0.637452	0.551022
	N10788	N	0.803333	0.687006	0.946348
	N10789	N	0.867764	0.637564	0.953260
	N10790	N	0.752065	0.700776	0.551121
	N10791	N	0.816203	0.649492	0.544610
	N10792	N	0.803913	0.649267	0.696596
	N10793	N	0.866474	0.711334	0.703761
	N10794	N	0.753294	0.625381	0.801208
	N10795	N	0.815640	0.688332	0.794597
	N10796	N	0.753211	0.625946	0.703806
	N10797	N	0.815747	0.688080	0.697262
	N10798	N	0.804029	0.648712	0.793804
	N10799	N	0.866397	0.711530	0.801108
	H10800	H	0.758064	0.801100	0.348561
	H10801	H	0.822199	0.756207	0.345212
	H10802	H	0.794224	0.808212	0.149224
	H10803	H	0.858189	0.755896	0.153820
	H10804	H	0.793967	0.806714	0.343967
	H10805	H	0.858279	0.756827	0.349320
	H10806	H	0.758245	0.802408	0.153729
	H10807	H	0.822118	0.756007	0.148734
	H10808	H	0.794871	0.754890	0.094356
	H10809	H	0.857526	0.817018	0.099475
	H10810	H	0.759182	0.744958	0.403597
	H10811	H	0.821383	0.809235	0.399507
	H10812	H	0.758845	0.746975	0.099107
	H10813	H	0.821676	0.808101	0.094740
	H10814	H	0.795050	0.754180	0.398886
	H10815	H	0.857371	0.817345	0.403741
	H10816	H	0.770042	0.803441	0.650284
	H10817	H	0.834084	0.754024	0.347032
	H10818	H	0.782158	0.808989	-0.152192
	H10819	H	0.846325	0.757945	0.151641
	H10820	H	0.782393	0.807689	0.648726
	H10821	H	0.846447	0.756440	0.348740
	H10822	H	0.769810	0.804840	-0.150533
	H10823	H	0.833968	0.755672	0.149985
	H10824	H	0.783106	0.749818	0.096812
	H10825	H	0.845606	0.812914	0.401865
	H10826	H	0.770885	0.750290	0.401028
	H10827	H	0.833379	0.812590	0.097599
	H10828	H	0.770706	0.748266	0.098012
	H10829	H	0.833230	0.811600	0.400079
	H10830	H	0.783311	0.750874	0.399343
	H10831	H	0.845780	0.813435	0.099342
	Co10832	Co	0.870608	0.844741	0.127647
	Co10833	Co	0.808160	0.782066	0.120449
	Co10834	Co	0.745657	0.719502	0.377368
	Co10835	Co	0.808128	0.782175	0.370309
	C10836	C	0.756924	0.802289	0.423168
	C10837	C	0.820966	0.757743	0.419093
	C10838	C	0.795355	0.806390	0.074270
	C10839	C	0.859408	0.754854	0.079072
	C10840	C	0.795173	0.805867	0.418669
	C10841	C	0.859408	0.755325	0.424013
	C10842	C	0.756966	0.802940	0.079288
	C10843	C	0.820996	0.757483	0.074327
	C10844	C	0.795985	0.756342	0.168799
	C10845	C	0.858623	0.818591	0.174383
	C10846	C	0.757967	0.744246	0.329251
	C10847	C	0.820337	0.807478	0.324516
	C10848	C	0.757802	0.745117	0.174122
	C10849	C	0.820479	0.806946	0.169322
	C10850	C	0.796099	0.755799	0.323910
	C10851	C	0.858525	0.818962	0.329449
	C10852	C	0.761390	0.801459	0.500584
	C10853	C	0.825464	0.755116	-0.002806
	C10854	C	0.790850	0.809068	0.496886
	C10855	C	0.855053	0.757720	0.001099
	C10856	C	0.791773	0.752399	0.246740
	C10857	C	0.854278	0.815172	0.251387
	C10858	C	0.762191	0.747883	0.251072
	C10859	C	0.824739	0.810488	0.247484
	C10860	C	0.768856	0.803346	0.499631
	C10861	C	0.832978	0.754953	-0.001672
	C10862	C	0.783340	0.808849	0.497929
	C10863	C	0.847555	0.757972	0.000023
	C10864	C	0.784296	0.750302	0.247795
	C10865	C	0.846835	0.813114	0.250518
	C10866	C	0.769673	0.749487	0.249870
	C10867	C	0.832188	0.812252	0.248665
	C10868	C	0.772651	0.804548	0.583079
	C10869	C	0.836659	0.754842	0.414825
	C10870	C	0.779569	0.807850	-0.085041
	C10871	C	0.843740	0.757489	0.083839
	C10872	C	0.779679	0.807077	0.582360
	C10873	C	0.843735	0.756283	0.415644
	C10874	C	0.772521	0.805268	-0.084212
	C10875	C	0.836675	0.756001	0.083133
	C10876	C	0.780461	0.749720	0.164186
	C10877	C	0.843013	0.812740	0.334314
	C10878	C	0.773508	0.750051	0.333532
	C10879	C	0.835993	0.812631	0.165201
	C10880	C	0.773390	0.748974	0.165074
	C10881	C	0.835922	0.812130	0.333246
	C10882	C	0.780591	0.750346	0.332645
	C10883	C	0.843095	0.813006	0.166031
	N10884	N	0.750335	0.804981	0.452540
	N10885	N	0.814496	0.763176	0.447367
	N10886	N	0.801806	0.801119	0.044630
	N10887	N	0.865879	0.749697	0.050992
	N10888	N	0.801679	0.801079	0.446801
	N10889	N	0.865854	0.750067	0.453772
	N10890	N	0.750378	0.805428	0.051043
	N10891	N	0.814543	0.762843	0.044554
	N10892	N	0.802272	0.762616	0.197215
	N10893	N	0.864851	0.824999	0.203792
	N10894	N	0.751608	0.738721	0.301157
	N10895	N	0.814062	0.801617	0.294759
	N10896	N	0.751503	0.739249	0.203727
	N10897	N	0.814166	0.801177	0.197241
	N10898	N	0.802336	0.762375	0.294211
	N10899	N	0.864811	0.825199	0.301306
	H10900	H	0.758115	0.801323	0.848861
	H10901	H	0.822348	0.756852	0.843611
	H10902	H	0.794186	0.808834	0.648361
	H10903	H	0.858096	0.756059	0.653431
	H10904	H	0.793987	0.806865	0.844378
	H10905	H	0.858435	0.756634	0.849405
	H10906	H	0.758244	0.802093	0.653547
	H10907	H	0.822036	0.756212	0.649628
	H10908	H	0.794744	0.755953	0.594552
	H10909	H	0.857571	0.816830	0.599748
	H10910	H	0.759233	0.745205	0.904562
	H10911	H	0.821434	0.808995	0.898975
	H10912	H	0.758921	0.746786	0.599479
	H10913	H	0.821662	0.808434	0.594052
	H10914	H	0.795202	0.753369	0.898727
	H10915	H	0.857332	0.817047	0.902841
	H10916	H	0.770075	0.803760	1.150710
	H10917	H	0.834209	0.754899	0.846557
	H10918	H	0.782118	0.809533	0.347723
	H10919	H	0.846207	0.758212	0.651673
	H10920	H	0.782390	0.807666	1.149119
	H10921	H	0.846554	0.756917	0.848189
	H10922	H	0.769805	0.804977	0.348646
	H10923	H	0.833859	0.755599	0.650299
	H10924	H	0.783292	0.750756	0.899502
	H10925	H	0.845832	0.813221	0.598276
	H10926	H	0.770732	0.748635	0.599093
	H10927	H	0.833221	0.811383	0.898832
	H10928	H	0.770907	0.750093	0.901063
	H10929	H	0.833423	0.812394	0.596675
	H10930	H	0.783132	0.749821	0.597603
	H10931	H	0.845623	0.812637	0.900523
	Co10932	Co	0.870674	0.844814	0.627806
	Co10933	Co	0.808136	0.782654	0.620031
	Co10934	Co	0.745684	0.719549	0.877581
	Co10935	Co	0.808206	0.782006	0.870482
	C10936	C	0.756896	0.802283	0.923765
	C10937	C	0.821127	0.757989	0.918940
	C10938	C	0.795298	0.806876	0.574004
	C10939	C	0.859289	0.754663	0.579275
	C10940	C	0.795239	0.805672	0.918842
	C10941	C	0.859537	0.755137	0.924046
	C10942	C	0.756987	0.802794	0.578781
	C10943	C	0.820876	0.757703	0.574668
	C10944	C	0.795962	0.756829	0.668996
	C10945	C	0.858617	0.818511	0.673885
	C10946	C	0.758003	0.744120	0.829550
	C10947	C	0.820368	0.807446	0.824202
	C10948	C	0.757842	0.745037	0.674025
	C10949	C	0.820459	0.807239	0.668758
	C10950	C	0.796173	0.755690	0.824154
	C10951	C	0.858502	0.818634	0.828603
	C10952	C	0.761391	0.801600	1.001073
	C10953	C	0.825336	0.754686	0.497496
	C10954	C	0.790874	0.808809	0.997072
	C10955	C	0.854920	0.757751	0.501083
	C10956	C	0.791779	0.752552	0.747179
	C10957	C	0.854289	0.814803	0.750691
	C10958	C	0.762242	0.747753	0.751229
	C10959	C	0.824746	0.810524	0.746837
	C10960	C	0.768852	0.803416	1.000023
	C10961	C	0.832835	0.754387	0.498587
	C10962	C	0.783392	0.808607	0.998340
	C10963	C	0.847426	0.757644	0.500285
	C10964	C	0.784343	0.750322	0.748154
	C10965	C	0.846838	0.812707	0.749483
	C10966	C	0.769701	0.749432	0.750183
	C10967	C	0.832217	0.812141	0.747541
	C10968	C	0.772657	0.804726	1.083351
	C10969	C	0.836804	0.755520	0.914424
	C10970	C	0.779520	0.808204	0.414561
	C10971	C	0.843608	0.757264	0.584049
	C10972	C	0.779708	0.807044	1.082545
	C10973	C	0.843865	0.756840	0.915209
	C10974	C	0.772505	0.805452	0.415328
	C10975	C	0.836537	0.755709	0.583105
	C10976	C	0.780616	0.750294	0.832519
	C10977	C	0.843129	0.812756	0.664852
	C10978	C	0.773430	0.749050	0.665781
	C10979	C	0.835924	0.812031	0.832257
	C10980	C	0.773519	0.749941	0.833667
	C10981	C	0.836038	0.812503	0.663995
	C10982	C	0.780514	0.749729	0.664955
	C10983	C	0.843014	0.812443	0.833133
	N10984	N	0.750325	0.805031	0.952954
	N10985	N	0.814622	0.763042	0.947063
	N10986	N	0.801765	0.801687	0.544301
	N10987	N	0.865775	0.749733	0.550961
	N10988	N	0.801735	0.800716	0.947117
	N10989	N	0.865975	0.749896	0.953566
	N10990	N	0.750379	0.805308	0.550568
	N10991	N	0.814449	0.763207	0.544890
	N10992	N	0.802244	0.763045	0.696794
	N10993	N	0.864846	0.825005	0.703395
	N10994	N	0.751658	0.738728	0.801340
	N10995	N	0.814074	0.801665	0.794732
	N10996	N	0.751559	0.739202	0.703729
	N10997	N	0.814128	0.801567	0.697293
	N10998	N	0.802372	0.762409	0.794173
	N10999	N	0.864777	0.825027	0.800538
	H11000	H	0.767467	1.011061	0.346883
	H11001	H	0.820711	0.864882	0.344911
	H11002	H	0.794853	0.926303	0.148200
	H11003	H	0.856514	0.869707	0.153522
	H11004	H	0.794740	0.925830	0.345600
	H11005	H	0.856713	0.870161	0.348369
	H11006	H	0.767560	1.011600	0.148706
	H11007	H	0.820569	0.864036	0.149380
	H11008	H	0.791955	0.867257	0.095985
	H11009	H	0.854485	0.929156	0.097991
	H11010	H	0.756513	0.853792	0.403135
	H11011	H	0.818822	0.917041	0.398918
	H11012	H	0.756221	0.854927	0.099406
	H11013	H	0.818880	0.917218	0.094892
	H11014	H	0.792093	0.866322	0.399842
	H11015	H	0.854366	0.929318	0.400826
	H11016	H	0.776679	0.984289	0.528782
	H11017	H	0.832511	0.867048	0.347375
	H11018	H	0.786200	0.954962	-0.053387
	H11019	H	0.844657	0.871362	0.150009
	H11020	H	0.786195	0.954773	0.528701
	H11021	H	0.844842	0.870862	0.348714
	H11022	H	0.776688	0.984303	-0.053496
	H11023	H	0.832326	0.867404	0.149028
	H11024	H	0.780178	0.864979	0.100346
	H11025	H	0.842709	0.929258	0.100194
	H11026	H	0.767829	0.864995	0.398085
	H11027	H	0.830287	0.925743	0.396579
	H11028	H	0.767790	0.862273	0.101735
	H11029	H	0.830309	0.926991	0.099665
	H11030	H	0.780234	0.867659	0.397181
	H11031	H	0.842697	0.927978	0.397013
	Co11032	Co	0.868742	0.947988	0.126298
	Co11033	Co	0.806256	0.885489	0.121625
	Co11034	Co	0.743774	0.822939	0.377203
	Co11035	Co	0.806243	0.885338	0.371233
	C11036	C	0.766640	1.014163	0.420795
	C11037	C	0.819495	0.865452	0.419316
	C11038	C	0.795741	0.923397	0.074221
	C11039	C	0.857705	0.868510	0.078769
	C11040	C	0.795682	0.922963	0.419491
	C11041	C	0.857847	0.868831	0.423264
	C11042	C	0.766723	1.014503	0.075081
	C11043	C	0.819405	0.865019	0.074901
	C11044	C	0.793153	0.867448	0.170029
	C11045	C	0.855705	0.929666	0.172215
	C11046	C	0.755439	0.852409	0.328967
	C11047	C	0.817801	0.915190	0.324580
	C11048	C	0.755285	0.852887	0.174066
	C11049	C	0.817864	0.915096	0.169572
	C11050	C	0.793234	0.866869	0.325106
	C11051	C	0.855638	0.929679	0.327009
	C11052	C	0.770040	1.003692	0.497875
	C11053	C	0.823844	0.864227	-0.002280
	C11054	C	0.792407	0.933873	0.497010
	C11055	C	0.853387	0.871350	0.000899
	C11056	C	0.788812	0.866160	0.247831
	C11057	C	0.851269	0.928511	0.249312
	C11058	C	0.759418	0.858210	0.250891
	C11059	C	0.821932	0.920768	0.247416
	C11060	C	0.775709	0.986070	0.497660
	C11061	C	0.831343	0.866110	-0.001555
	C11062	C	0.786771	0.951610	0.497168
	C11063	C	0.845848	0.871262	-0.000139
	C11064	C	0.781307	0.865748	0.248586
	C11065	C	0.843786	0.928121	0.248726
	C11066	C	0.766759	0.863014	0.249883
	C11067	C	0.829235	0.925581	0.247891
	C11068	C	0.778673	0.977627	0.514914
	C11069	C	0.835138	0.867806	0.414418
	C11070	C	0.784068	0.961069	-0.031018
	C11071	C	0.842033	0.870374	0.083222
	C11072	C	0.784047	0.960827	0.514834
	C11073	C	0.842173	0.870114	0.415243
	C11074	C	0.778673	0.977715	-0.030918
	C11075	C	0.835021	0.867976	0.082635
	C11076	C	0.777528	0.864885	0.166076
	C11077	C	0.840043	0.928362	0.165590
	C11078	C	0.770510	0.864959	0.332610
	C11079	C	0.832958	0.926451	0.330816
	C11080	C	0.770488	0.863455	0.166618
	C11081	C	0.832981	0.927102	0.165263
	C11082	C	0.777561	0.866327	0.331884
	C11083	C	0.840029	0.927719	0.331278
	N11084	N	0.761832	1.030053	0.450215
	N11085	N	0.812887	0.867787	0.447675
	N11086	N	0.800557	0.907595	0.044588
	N11087	N	0.864214	0.863490	0.050619
	N11088	N	0.800531	0.907215	0.448742
	N11089	N	0.864309	0.863746	0.453142
	N11090	N	0.761888	1.030270	0.045586
	N11091	N	0.812807	0.867667	0.045674
	N11092	N	0.799713	0.869404	0.198058
	N11093	N	0.862235	0.931810	0.201685
	N11094	N	0.749490	0.843400	0.300292
	N11095	N	0.811891	0.906115	0.295057
	N11096	N	0.749380	0.843782	0.203682
	N11097	N	0.811921	0.906098	0.198542
	N11098	N	0.799783	0.869010	0.295816
	N11099	N	0.862177	0.931855	0.298856
	H11100	H	0.767606	1.011452	0.846635
	H11101	H	0.820707	0.864834	0.844570
	H11102	H	0.794960	0.926505	0.648201
	H11103	H	0.856528	0.869670	0.652824
	H11104	H	0.794877	0.926697	0.845792
	H11105	H	0.856690	0.869941	0.849035
	H11106	H	0.767802	1.012066	0.649241
	H11107	H	0.820615	0.863861	0.650040
	H11108	H	0.791948	0.867292	0.595789
	H11109	H	0.854556	0.928610	0.599081
	H11110	H	0.756570	0.853958	0.901947
	H11111	H	0.818834	0.917755	0.898919
	H11112	H	0.756235	0.854782	0.597893
	H11113	H	0.819084	0.916477	0.595357
	H11114	H	0.792151	0.866535	0.899568
	H11115	H	0.854500	0.929238	0.901973
	H11116	H	0.776285	0.983010	1.049317
	H11117	H	0.832530	0.866680	0.847928
	H11118	H	0.785762	0.953431	0.465647
	H11119	H	0.844679	0.871305	0.650416
	H11120	H	0.785818	0.953736	1.047752
	H11121	H	0.844864	0.870539	0.848973
	H11122	H	0.776325	0.983115	0.466088
	H11123	H	0.832381	0.867083	0.648800
	H11124	H	0.780244	0.865244	0.600543
	H11125	H	0.842844	0.928676	0.600550
	H11126	H	0.767828	0.864910	0.897039
	H11127	H	0.830315	0.925654	0.897024
	H11128	H	0.767839	0.862431	0.600977
	H11129	H	0.830438	0.926304	0.599709
	H11130	H	0.780203	0.867517	0.896757
	H11131	H	0.842694	0.928291	0.898481
	Co11132	Co	0.868763	0.947985	0.625786
	Co11133	Co	0.806299	0.885391	0.621860
	Co11134	Co	0.743818	0.822955	0.876514
	Co11135	Co	0.806269	0.885642	0.871052
	C11136	C	0.766718	1.014389	0.920430
	C11137	C	0.819469	0.865373	0.919669
	C11138	C	0.795803	0.923357	0.574373
	C11139	C	0.857740	0.868603	0.578478
	C11140	C	0.795759	0.923577	0.919557
	C11141	C	0.857805	0.868800	0.923597
	C11142	C	0.766813	1.014726	0.575113
	C11143	C	0.819441	0.864953	0.574873
	C11144	C	0.793184	0.867431	0.670294
	C11145	C	0.855784	0.929480	0.672872
	C11146	C	0.755452	0.852424	0.827504
	C11147	C	0.817829	0.915257	0.824665
	C11148	C	0.755309	0.852794	0.672661
	C11149	C	0.817939	0.914831	0.669415
	C11150	C	0.793251	0.867125	0.825119
	C11151	C	0.855755	0.929686	0.827651
	C11152	C	0.770037	1.003752	0.997840
	C11153	C	0.823900	0.864212	0.497320
	C11154	C	0.792453	0.934239	0.997192
	C11155	C	0.853407	0.871353	0.500337
	C11156	C	0.788814	0.866222	0.747966
	C11157	C	0.851326	0.928436	0.750105
	C11158	C	0.759448	0.858192	0.749576
	C11159	C	0.822009	0.920588	0.747411
	C11160	C	0.775700	0.986152	0.997796
	C11161	C	0.831371	0.866129	0.497904
	C11162	C	0.786816	0.951928	0.997486
	C11163	C	0.845890	0.871249	0.499508
	C11164	C	0.781321	0.865786	0.748626
	C11165	C	0.843867	0.927877	0.749668
	C11166	C	0.766776	0.863032	0.748952
	C11167	C	0.829309	0.925178	0.748185
	C11168	C	0.778442	0.977024	1.026205
	C11169	C	0.835144	0.867516	0.914834
	C11170	C	0.783832	0.960131	0.479420
	C11171	C	0.842098	0.870292	0.583062
	C11172	C	0.783839	0.960370	1.025949
	C11173	C	0.842167	0.869803	0.915352
	C11174	C	0.778452	0.976876	0.479984
	C11175	C	0.835072	0.867839	0.582095
	C11176	C	0.777570	0.864997	0.666032
	C11177	C	0.840166	0.927934	0.666298
	C11178	C	0.770503	0.864912	0.831604
	C11179	C	0.832999	0.926305	0.831525
	C11180	C	0.770521	0.863589	0.666114
	C11181	C	0.833074	0.926575	0.665651
	C11182	C	0.777553	0.866348	0.831465
	C11183	C	0.840088	0.927608	0.832182
	N11184	N	0.761892	1.030207	0.949784
	N11185	N	0.812839	0.867915	0.947747
	N11186	N	0.800605	0.907445	0.544960
	N11187	N	0.864246	0.863615	0.550462
	N11188	N	0.800568	0.907679	0.948637
	N11189	N	0.864273	0.863613	0.953335
	N11190	N	0.761925	1.030361	0.546009
	N11191	N	0.812844	0.867482	0.545799
	N11192	N	0.799744	0.869496	0.698222
	N11193	N	0.862304	0.931667	0.701979
	N11194	N	0.749490	0.843413	0.799234
	N11195	N	0.811902	0.906359	0.795129
	N11196	N	0.749418	0.843585	0.702453
	N11197	N	0.811985	0.905982	0.698365
	N11198	N	0.799783	0.869293	0.795819
	N11199	N	0.862275	0.931732	0.799366
	H11200	H	0.892415	0.136142	0.349047
	H11201	H	0.945884	-0.009133	0.341983
	H11202	H	0.920125	0.051835	0.145694
	H11203	H	0.981426	-0.005819	0.153668
	H11204	H	0.919607	0.050861	0.344156
	H11205	H	0.981843	-0.004433	0.349033
	H11206	H	0.892729	0.136690	0.151823
	H11207	H	0.945515	-0.011528	0.146702
	H11208	H	0.916891	-0.007421	0.093175
	H11209	H	0.979544	0.053389	0.097823
	H11210	H	0.881705	-0.021551	0.401604
	H11211	H	0.943516	0.043595	0.396267
	H11212	H	0.881122	-0.019484	0.097482
	H11213	H	0.944131	0.040745	0.093414
	H11214	H	0.917061	-0.008781	0.396232
	H11215	H	0.979469	0.054404	0.401389
	H11216	H	0.901730	0.109376	0.540508
	H11217	H	0.957683	-0.010586	0.345873
	H11218	H	0.911329	0.080365	-0.062367
	H11219	H	0.969543	-0.002135	0.149432
	H11220	H	0.911249	0.079847	0.539359
	H11221	H	0.969985	-0.006435	0.347551
	H11222	H	0.901759	0.109553	-0.060130
	H11223	H	0.957206	-0.006134	0.146713
	H11224	H	0.905189	-0.010526	0.097511
	H11225	H	0.967740	0.056255	0.101090
	H11226	H	0.892815	-0.009584	0.395442
	H11227	H	0.955266	0.048310	0.395111
	H11228	H	0.892791	-0.013313	0.098296
	H11229	H	0.955324	0.053836	0.099740
	H11230	H	0.905254	-0.007011	0.393882
	H11231	H	0.967709	0.050656	0.396981
	Co11232	Co	0.993736	0.072475	0.126012
	Co11233	Co	0.931274	0.010407	0.118522
	Co11234	Co	0.868772	-0.052413	0.375792
	Co11235	Co	0.931235	0.010590	0.367802
	C11236	C	0.891633	0.139102	0.423099
	C11237	C	0.944533	-0.009021	0.416359
	C11238	C	0.920874	0.048572	0.071528
	C11239	C	0.982704	-0.006618	0.079389
	C11240	C	0.920632	0.048013	0.417821
	C11241	C	0.982913	-0.006202	0.423386
	C11242	C	0.891784	0.139420	0.077730
	C11243	C	0.944359	-0.010187	0.071945
	C11244	C	0.918126	-0.007226	0.167424
	C11245	C	0.980717	0.054044	0.172192
	C11246	C	0.880506	-0.023063	0.327443
	C11247	C	0.942693	0.040831	0.321968
	C11248	C	0.880223	-0.021976	0.172292
	C11249	C	0.942974	0.039674	0.167414
	C11250	C	0.918223	-0.007943	0.322335
	C11251	C	0.980658	0.054586	0.327387
	C11252	C	0.895040	0.128553	0.500116
	C11253	C	0.948881	-0.010779	-0.005373
	C11254	C	0.917461	0.058825	0.495824
	C11255	C	0.978389	-0.003364	0.000992
	C11256	C	0.913785	-0.008759	0.245297
	C11257	C	0.976303	0.053208	0.249473
	C11258	C	0.884432	-0.016968	0.249040
	C11259	C	0.946918	0.045716	0.245506
	C11260	C	0.900723	0.110887	0.499028
	C11261	C	0.956345	-0.008833	-0.003841
	C11262	C	0.911795	0.076523	0.497066
	C11263	C	0.970879	-0.003628	-0.000648
	C11264	C	0.906283	-0.009218	0.245716
	C11265	C	0.968808	0.052941	0.248981
	C11266	C	0.891759	-0.012176	0.247226
	C11267	C	0.954265	0.050389	0.247364
	C11268	C	0.903699	0.102565	0.521956
	C11269	C	0.960212	-0.008684	0.413102
	C11270	C	0.909112	0.086238	-0.036210
	C11271	C	0.966995	-0.003748	0.082346
	C11272	C	0.909070	0.085836	0.521089
	C11273	C	0.967275	-0.006285	0.414116
	C11274	C	0.903702	0.102821	-0.035007
	C11275	C	0.959948	-0.006217	0.080593
	C11276	C	0.902508	-0.010395	0.163139
	C11277	C	0.965070	0.054444	0.166168
	C11278	C	0.895495	-0.009973	0.329587
	C11279	C	0.957980	0.050057	0.330504
	C11280	C	0.895458	-0.011903	0.163832
	C11281	C	0.958012	0.053144	0.165230
	C11282	C	0.902544	-0.008476	0.328837
	C11283	C	0.965038	0.051302	0.331312
	N11284	N	0.886796	0.154883	0.453180
	N11285	N	0.937923	-0.006903	0.443977
	N11286	N	0.925638	0.032581	0.041665
	N11287	N	0.989222	-0.011325	0.051904
	N11288	N	0.925550	0.032351	0.446052
	N11289	N	0.989340	-0.011394	0.453898
	N11290	N	0.886894	0.155120	0.048864
	N11291	N	0.937780	-0.007559	0.042336
	N11292	N	0.924691	-0.005255	0.195536
	N11293	N	0.987271	0.056178	0.201428
	N11294	N	0.874527	-0.031904	0.299347
	N11295	N	0.936805	0.031592	0.291741
	N11296	N	0.874332	-0.031175	0.202563
	N11297	N	0.937000	0.030952	0.195324
	N11298	N	0.924764	-0.005677	0.292775
	N11299	N	0.987223	0.056535	0.298920
	H11300	H	0.892375	0.136097	0.848591
	H11301	H	0.945774	-0.009778	0.841050
	H11302	H	0.920125	0.051386	0.646807
	H11303	H	0.981440	-0.005961	0.653576
	H11304	H	0.919745	0.051090	0.843650
	H11305	H	0.981828	-0.003454	0.849072
	H11306	H	0.892673	0.136317	0.652113
	H11307	H	0.945560	-0.012274	0.646797
	H11308	H	0.916913	-0.007664	0.592806
	H11309	H	0.979621	0.053734	0.598020
	H11310	H	0.881687	-0.021480	0.900797
	H11311	H	0.943700	0.042950	0.896652
	H11312	H	0.881162	-0.019426	0.597385
	H11313	H	0.944146	0.041069	0.592344
	H11314	H	0.917065	-0.009154	0.895809
	H11315	H	0.979467	0.054789	0.901915
	H11316	H	0.901216	0.107577	1.056671
	H11317	H	0.957671	-0.009697	0.845560
	H11318	H	0.910797	0.078163	0.455646
	H11319	H	0.969606	-0.001877	0.648916
	H11320	H	0.910740	0.078254	1.054475
	H11321	H	0.969992	-0.005588	0.848422
	H11322	H	0.901317	0.107818	0.457384
	H11323	H	0.957277	-0.005903	0.647543
	H11324	H	0.905194	-0.010838	0.595984
	H11325	H	0.967765	0.056293	0.600286
	H11326	H	0.892864	-0.009213	0.895355
	H11327	H	0.955283	0.048960	0.895077
	H11328	H	0.892799	-0.013252	0.597490
	H11329	H	0.955353	0.053658	0.598068
	H11330	H	0.905283	-0.006906	0.893612
	H11331	H	0.967655	0.051542	0.896929
	Co11332	Co	0.993781	0.072768	0.625344
	Co11333	Co	0.931331	0.010147	0.618419
	Co11334	Co	0.868813	-0.052376	0.875703
	Co11335	Co	0.931214	0.010392	0.868255
	C11336	C	0.891609	0.139105	0.922858
	C11337	C	0.944482	-0.009393	0.916109
	C11338	C	0.920899	0.048328	0.572469
	C11339	C	0.982723	-0.007034	0.579083
	C11340	C	0.920697	0.048208	0.917178
	C11341	C	0.982896	-0.005400	0.924190
	C11342	C	0.891776	0.139222	0.578088
	C11343	C	0.944370	-0.010592	0.571917
	C11344	C	0.918164	-0.007442	0.666677
	C11345	C	0.980740	0.054536	0.672362
	C11346	C	0.880534	-0.023035	0.826594
	C11347	C	0.942762	0.040480	0.822058
	C11348	C	0.880264	-0.022021	0.671711
	C11349	C	0.943007	0.039541	0.666692
	C11350	C	0.918246	-0.008194	0.821605
	C11351	C	0.980652	0.055038	0.827354
	C11352	C	0.895007	0.128533	0.999741
	C11353	C	0.948926	-0.010806	0.494977
	C11354	C	0.917492	0.059177	0.994712
	C11355	C	0.978373	-0.003843	0.500440
	C11356	C	0.913790	-0.008869	0.744552
	C11357	C	0.976286	0.053736	0.749397
	C11358	C	0.884482	-0.016847	0.748409
	C11359	C	0.946948	0.045745	0.745034
	C11360	C	0.900696	0.110971	0.998504
	C11361	C	0.956366	-0.009040	0.496577
	C11362	C	0.911820	0.076873	0.995742
	C11363	C	0.970906	-0.003944	0.498635
	C11364	C	0.906309	-0.009299	0.745053
	C11365	C	0.968805	0.053333	0.748559
	C11366	C	0.891776	-0.011937	0.746715
	C11367	C	0.954254	0.050631	0.746220
	C11368	C	0.903407	0.101634	1.030551
	C11369	C	0.960204	-0.008189	0.912978
	C11370	C	0.908833	0.084917	0.474255
	C11371	C	0.967049	-0.003876	0.581734
	C11372	C	0.908824	0.085094	1.029359
	C11373	C	0.967238	-0.005691	0.914547
	C11374	C	0.903461	0.101652	0.475053
	C11375	C	0.959987	-0.006208	0.580924
	C11376	C	0.902548	-0.010517	0.662207
	C11377	C	0.965074	0.054469	0.665495
	C11378	C	0.895517	-0.009617	0.829041
	C11379	C	0.957961	0.050582	0.829694
	C11380	C	0.895484	-0.011813	0.662973
	C11381	C	0.958008	0.053126	0.664100
	C11382	C	0.902587	-0.008292	0.828231
	C11383	C	0.965025	0.051970	0.830715
	N11384	N	0.886793	0.154889	0.952980
	N11385	N	0.937864	-0.007113	0.944291
	N11386	N	0.925712	0.032503	0.542092
	N11387	N	0.989218	-0.011839	0.551478
	N11388	N	0.925528	0.032343	0.945928
	N11389	N	0.989330	-0.010590	0.954183
	N11390	N	0.886895	0.154946	0.549159
	N11391	N	0.937815	-0.007787	0.542267
	N11392	N	0.924726	-0.005561	0.694805
	N11393	N	0.987264	0.056740	0.701508
	N11394	N	0.874586	-0.031992	0.798514
	N11395	N	0.936913	0.031040	0.791983
	N11396	N	0.874408	-0.031336	0.701816
	N11397	N	0.937076	0.030509	0.695119
	N11398	N	0.924778	-0.005934	0.792102
	N11399	N	0.987192	0.057051	0.799087
	H11400	H	0.893223	0.253834	0.349421
	H11401	H	0.955256	0.198697	0.344565
	H11402	H	0.929464	0.261289	0.147885
	H11403	H	0.982138	0.112873	0.151012
	H11404	H	0.929221	0.259461	0.343464
	H11405	H	0.982494	0.113485	0.347714
	H11406	H	0.893535	0.255668	0.153808
	H11407	H	0.954876	0.198043	0.146746
	H11408	H	0.930821	0.208357	0.094005
	H11409	H	0.993838	0.269293	0.099238
	H11410	H	0.895555	0.194970	0.402267
	H11411	H	0.957871	0.259195	0.397848
	H11412	H	0.895334	0.196771	0.098065
	H11413	H	0.958082	0.257099	0.094364
	H11414	H	0.931271	0.206890	0.398876
	H11415	H	0.993261	0.271754	0.402238
	H11416	H	0.905042	0.255190	0.349109
	H11417	H	0.964537	0.172424	0.395431
	H11418	H	0.917753	0.256562	0.148031
	H11419	H	0.973366	0.140357	-0.097305
	H11420	H	0.917392	0.259303	0.347128
	H11421	H	0.974016	0.142818	0.396902
	H11422	H	0.905428	0.252886	0.150213
	H11423	H	0.963857	0.169798	-0.098601
	H11424	H	0.919622	0.196848	0.099974
	H11425	H	0.982153	0.258839	0.397018
	H11426	H	0.907254	0.198074	0.397983
	H11427	H	0.969764	0.261133	0.098036
	H11428	H	0.907195	0.194378	0.101300
	H11429	H	0.969758	0.256292	0.395736
	H11430	H	0.919664	0.200683	0.396559
	H11431	H	0.982170	0.263645	0.099667
	Co11432	Co	1.006225	0.301928	0.127510
	Co11433	Co	0.943663	0.239336	0.119858
	Co11434	Co	0.881151	0.177274	0.376449
	Co11435	Co	0.943768	0.239213	0.369295
	C11436	C	0.892119	0.255693	0.424262
	C11437	C	0.954348	0.201746	0.418167
	C11438	C	0.930607	0.260028	0.073369
	C11439	C	0.983162	0.110127	0.077273
	C11440	C	0.930486	0.259148	0.417900
	C11441	C	0.983307	0.110521	0.421942
	C11442	C	0.892290	0.256859	0.079285
	C11443	C	0.954126	0.201415	0.072931
	C11444	C	0.932002	0.210106	0.168331
	C11445	C	0.994732	0.271810	0.173744
	C11446	C	0.894300	0.194891	0.328384
	C11447	C	0.956697	0.258141	0.323509
	C11448	C	0.894186	0.195796	0.172879
	C11449	C	0.956816	0.257122	0.168451
	C11450	C	0.932241	0.209166	0.323815
	C11451	C	0.994419	0.273102	0.328600
	C11452	C	0.896614	0.253563	0.501378
	C11453	C	0.957590	0.191005	-0.003639
	C11454	C	0.926102	0.260673	0.496319
	C11455	C	0.979952	0.121163	-0.000334
	C11456	C	0.928026	0.204106	0.246803
	C11457	C	0.990507	0.266759	0.250358
	C11458	C	0.898649	0.196429	0.250312
	C11459	C	0.961175	0.258790	0.246326
	C11460	C	0.904132	0.253669	0.500062
	C11461	C	0.963238	0.173297	-0.003152
	C11462	C	0.918637	0.258828	0.497705
	C11463	C	0.974307	0.138881	-0.001511
	C11464	C	0.920701	0.199423	0.248179
	C11465	C	0.983199	0.261953	0.248578
	C11466	C	0.906138	0.196775	0.249679
	C11467	C	0.968663	0.259229	0.247032
	C11468	C	0.907775	0.255493	0.415445
	C11469	C	0.966366	0.165357	0.440054
	C11470	C	0.915012	0.256444	0.081867
	C11471	C	0.971381	0.147171	-0.055411
	C11472	C	0.914806	0.257993	0.414296
	C11473	C	0.971741	0.148604	0.440705
	C11474	C	0.907978	0.254210	0.082896
	C11475	C	0.966007	0.163950	-0.056338
	C11476	C	0.916951	0.197243	0.165805
	C11477	C	0.979465	0.259398	0.331111
	C11478	C	0.909913	0.197875	0.331994
	C11479	C	0.972415	0.260659	0.164201
	C11480	C	0.909880	0.195872	0.166651
	C11481	C	0.972402	0.258048	0.330229
	C11482	C	0.916984	0.199191	0.331190
	C11483	C	0.979480	0.262044	0.164999
	N11484	N	0.885674	0.260914	0.454187
	N11485	N	0.949494	0.217504	0.447000
	N11486	N	0.937193	0.257387	0.043971
	N11487	N	0.988038	0.094463	0.048451
	N11488	N	0.937120	0.256805	0.445921
	N11489	N	0.988106	0.094639	0.451863
	N11490	N	0.885765	0.261590	0.051344
	N11491	N	0.949322	0.217279	0.042747
	N11492	N	0.937982	0.218798	0.196768
	N11493	N	1.000595	0.281193	0.204048
	N11494	N	0.887738	0.193003	0.299885
	N11495	N	0.950186	0.255765	0.294068
	N11496	N	0.887660	0.193483	0.202291
	N11497	N	0.950277	0.255075	0.196615
	N11498	N	0.938139	0.218277	0.293483
	N11499	N	1.000394	0.281981	0.300389
	H11500	H	0.893262	0.254149	0.849506
	H11501	H	0.955410	0.199251	0.844767
	H11502	H	0.929428	0.261471	0.648506
	H11503	H	0.982339	0.113576	0.650753
	H11504	H	0.929239	0.259622	0.843501
	H11505	H	0.982602	0.114022	0.849283
	H11506	H	0.893534	0.255931	0.653845
	H11507	H	0.955110	0.198914	0.647366
	H11508	H	0.930863	0.208822	0.594062
	H11509	H	0.993877	0.269419	0.598897
	H11510	H	0.895581	0.194761	0.901766
	H11511	H	0.957866	0.258785	0.897394
	H11512	H	0.895418	0.196432	0.598657
	H11513	H	0.958050	0.257595	0.594113
	H11514	H	0.931380	0.206758	0.897296
	H11515	H	0.993258	0.271962	0.903307
	H11516	H	0.905070	0.254839	0.848884
	H11517	H	0.964151	0.171902	1.092711
	H11518	H	0.917736	0.256525	0.648337
	H11519	H	0.973113	0.140152	0.599240
	H11520	H	0.917433	0.258662	0.847193
	H11521	H	0.973709	0.142457	1.094449
	H11522	H	0.905397	0.252544	0.650605
	H11523	H	0.963578	0.169644	0.597764
	H11524	H	0.919655	0.197717	0.599424
	H11525	H	0.982195	0.263909	0.599815
	H11526	H	0.907345	0.197018	0.897845
	H11527	H	0.969692	0.256697	0.895227
	H11528	H	0.907250	0.195211	0.600350
	H11529	H	0.969764	0.261260	0.598292
	H11530	H	0.919766	0.199579	0.895940
	H11531	H	0.982098	0.259423	0.896874
	Co11532	Co	1.006263	0.302092	0.627798
	Co11533	Co	0.943696	0.239565	0.619595
	Co11534	Co	0.881135	0.177003	0.876243
	Co11535	Co	0.943753	0.239329	0.869230
	C11536	C	0.892146	0.255947	0.924047
	C11537	C	0.954409	0.201980	0.918616
	C11538	C	0.930596	0.260219	0.573301
	C11539	C	0.983232	0.110538	0.576776
	C11540	C	0.930509	0.259224	0.918002
	C11541	C	0.983399	0.110672	0.922886
	C11542	C	0.892282	0.256803	0.579627
	C11543	C	0.954262	0.201880	0.573104
	C11544	C	0.932022	0.210149	0.668206
	C11545	C	0.994740	0.272021	0.673523
	C11546	C	0.894309	0.194735	0.827607
	C11547	C	0.956739	0.258103	0.823063
	C11548	C	0.894242	0.195498	0.672667
	C11549	C	0.956819	0.257488	0.668274
	C11550	C	0.932275	0.209177	0.822991
	C11551	C	0.994452	0.273202	0.828850
	C11552	C	0.896616	0.253704	1.001020
	C11553	C	0.957629	0.191122	0.496040
	C11554	C	0.926128	0.260616	0.996120
	C11555	C	0.979969	0.121286	0.498894
	C11556	C	0.928067	0.204078	0.746332
	C11557	C	0.990529	0.267200	0.750345
	C11558	C	0.898693	0.196233	0.749823
	C11559	C	0.961153	0.259072	0.746023
	C11560	C	0.904134	0.253763	0.999639
	C11561	C	0.963276	0.173406	0.496665
	C11562	C	0.918654	0.258595	0.997333
	C11563	C	0.974327	0.139013	0.497925
	C11564	C	0.920740	0.199348	0.747637
	C11565	C	0.983189	0.262485	0.748693
	C11566	C	0.906178	0.196656	0.749200
	C11567	C	0.968648	0.259625	0.746786
	C11568	C	0.907789	0.255317	0.915259
	C11569	C	0.966183	0.165050	1.050691
	C11570	C	0.915003	0.256497	0.581989
	C11571	C	0.971240	0.147146	0.554366
	C11572	C	0.914829	0.257524	0.914064
	C11573	C	0.971556	0.148251	1.051699
	C11574	C	0.907969	0.254079	0.583248
	C11575	C	0.965866	0.163902	0.553865
	C11576	C	0.916969	0.197572	0.664969
	C11577	C	0.979491	0.262438	0.665069
	C11578	C	0.909961	0.197321	0.831636
	C11579	C	0.972388	0.258496	0.830055
	C11580	C	0.909903	0.196256	0.666140
	C11581	C	0.972434	0.261059	0.664327
	C11582	C	0.917031	0.198663	0.830945
	C11583	C	0.979435	0.259879	0.830970
	N11584	N	0.885672	0.261128	0.954059
	N11585	N	0.949510	0.217642	0.947086
	N11586	N	0.937184	0.257442	0.543761
	N11587	N	0.988065	0.094642	0.547800
	N11588	N	0.937122	0.256866	0.945906
	N11589	N	0.988196	0.094830	0.952631
	N11590	N	0.885791	0.261571	0.551574
	N11591	N	0.949430	0.217542	0.542923
	N11592	N	0.937996	0.218986	0.696375
	N11593	N	1.000638	0.281239	0.703828
	N11594	N	0.887757	0.192786	0.799524
	N11595	N	0.950211	0.255679	0.793878
	N11596	N	0.887707	0.193220	0.702016
	N11597	N	0.950262	0.255350	0.696460
	N11598	N	0.938150	0.218441	0.792934
	N11599	N	1.000451	0.281957	0.800561
	H11600	H	0.891621	0.367488	0.349169
	H11601	H	0.956126	0.318666	0.341492
	H11602	H	0.927946	0.369359	0.146586
	H11603	H	0.991700	0.321873	0.153964
	H11604	H	0.927725	0.368066	0.341806
	H11605	H	0.991994	0.324444	0.349071
	H11606	H	0.891864	0.369705	0.153688
	H11607	H	0.955693	0.316171	0.146393
	H11608	H	0.928284	0.316936	0.092058
	H11609	H	0.991154	0.377383	0.100004
	H11610	H	0.892701	0.307142	0.404219
	H11611	H	0.954792	0.371202	0.396943
	H11612	H	0.892302	0.308804	0.099691
	H11613	H	0.955287	0.369495	0.092567
	H11614	H	0.928684	0.315777	0.396972
	H11615	H	0.990627	0.380427	0.404157
	H11616	H	0.903477	0.368424	0.347145
	H11617	H	0.967506	0.318315	0.647681
	H11618	H	0.916067	0.368738	0.148671
	H11619	H	0.979808	0.322220	0.150100
	H11620	H	0.915800	0.370664	0.344551
	H11621	H	0.979853	0.322380	0.649726
	H11622	H	0.903734	0.366428	0.151126
	H11623	H	0.967487	0.317915	0.147545
	H11624	H	0.916565	0.311759	0.095497
	H11625	H	0.979047	0.373627	0.401033
	H11626	H	0.904415	0.313291	0.400983
	H11627	H	0.966863	0.376414	0.096148
	H11628	H	0.904152	0.310777	0.097901
	H11629	H	0.966657	0.372133	0.398604
	H11630	H	0.916789	0.314176	0.398811
	H11631	H	0.979294	0.377386	0.098355
	Co11632	Co	1.004281	0.405205	0.128590
	Co11633	Co	0.941824	0.342990	0.117072
	Co11634	Co	0.879346	0.280206	0.378466
	Co11635	Co	0.941857	0.342872	0.367682
	C11636	C	0.890540	0.369396	0.424240
	C11637	C	0.954831	0.319248	0.416241
	C11638	C	0.929008	0.367664	0.072018
	C11639	C	0.992961	0.321748	0.079265
	C11640	C	0.928942	0.366881	0.416453
	C11641	C	0.993120	0.323044	0.423746
	C11642	C	0.890575	0.370424	0.079315
	C11643	C	0.954595	0.318366	0.071971
	C11644	C	0.929494	0.318240	0.166715
	C11645	C	0.992196	0.379625	0.174651
	C11646	C	0.891520	0.306005	0.329388
	C11647	C	0.953801	0.369137	0.322038
	C11648	C	0.891326	0.306833	0.174474
	C11649	C	0.954037	0.368239	0.166668
	C11650	C	0.929676	0.317596	0.322110
	C11651	C	0.991929	0.381124	0.330005
	C11652	C	0.895034	0.367317	0.500898
	C11653	C	0.959095	0.316151	-0.004908
	C11654	C	0.924621	0.370056	0.494803
	C11655	C	0.988590	0.323424	0.000841
	C11656	C	0.925268	0.314630	0.245217
	C11657	C	0.987722	0.377163	0.251384
	C11658	C	0.895698	0.310039	0.251223
	C11659	C	0.958230	0.372309	0.245211
	C11660	C	0.902541	0.367269	0.499064
	C11661	C	0.966596	0.316267	-0.003477
	C11662	C	0.917119	0.370319	0.495971
	C11663	C	0.981128	0.321446	-0.000615
	C11664	C	0.917798	0.312828	0.246854
	C11665	C	0.980274	0.375373	0.249639
	C11666	C	0.903157	0.312142	0.249644
	C11667	C	0.965661	0.374416	0.247037
	C11668	C	0.906194	0.368577	0.413927
	C11669	C	0.970249	0.318330	0.581290
	C11670	C	0.913348	0.368788	0.081845
	C11671	C	0.977264	0.320686	0.082499
	C11672	C	0.913250	0.369996	0.412408
	C11673	C	0.977280	0.320878	0.582392
	C11674	C	0.906283	0.367340	0.083175
	C11675	C	0.970223	0.318214	0.081073
	C11676	C	0.913962	0.312056	0.163263
	C11677	C	0.976455	0.374175	0.333344
	C11678	C	0.907012	0.312993	0.333178
	C11679	C	0.969481	0.375759	0.163537
	C11680	C	0.906875	0.311548	0.164593
	C11681	C	0.969355	0.373509	0.331956
	C11682	C	0.914095	0.313378	0.331776
	C11683	C	0.976580	0.376183	0.164854
	N11684	N	0.884081	0.374537	0.454254
	N11685	N	0.948303	0.323903	0.443750
	N11686	N	0.935434	0.362280	0.041741
	N11687	N	0.999596	0.319559	0.051396
	N11688	N	0.935436	0.361744	0.444435
	N11689	N	0.999707	0.320494	0.453254
	N11690	N	0.884079	0.375329	0.051779
	N11691	N	0.948163	0.323647	0.041750
	N11692	N	0.935847	0.323886	0.194479
	N11693	N	0.998460	0.385588	0.204757
	N11694	N	0.885233	0.299774	0.301773
	N11695	N	0.947589	0.362684	0.291695
	N11696	N	0.885113	0.300189	0.204338
	N11697	N	0.947741	0.362171	0.194487
	N11698	N	0.935949	0.323513	0.291985
	N11699	N	0.998290	0.386474	0.302066
	H11700	H	0.891463	0.367387	0.849971
	H11701	H	0.956061	0.318657	0.842375
	H11702	H	0.928016	0.369202	0.646795
	H11703	H	0.991729	0.322347	0.653748
	H11704	H	0.927547	0.367897	0.842161
	H11705	H	0.991940	0.324443	0.848881
	H11706	H	0.892029	0.369416	0.653022
	H11707	H	0.955699	0.315718	0.646003
	H11708	H	0.928258	0.317098	0.592573
	H11709	H	0.991152	0.378076	0.599999
	H11710	H	0.892709	0.307057	0.903248
	H11711	H	0.954787	0.371373	0.895958
	H11712	H	0.892269	0.308565	0.598946
	H11713	H	0.955307	0.368982	0.591758
	H11714	H	0.928633	0.315697	0.897188
	H11715	H	0.990792	0.379916	0.904586
	H11716	H	0.903375	0.368558	0.847567
	H11717	H	0.967928	0.314802	0.846061
	H11718	H	0.916176	0.368957	0.647806
	H11719	H	0.980283	0.318443	0.348099
	H11720	H	0.915710	0.370994	0.845238
	H11721	H	0.980232	0.318645	0.848544
	H11722	H	0.903816	0.367001	0.650458
	H11723	H	0.967990	0.314237	0.345950
	H11724	H	0.916765	0.314055	0.898197
	H11725	H	0.979021	0.373941	0.900870
	H11726	H	0.904174	0.310832	0.597220
	H11727	H	0.966878	0.376232	0.595722
	H11728	H	0.904373	0.312909	0.900646
	H11729	H	0.966643	0.372660	0.898082
	H11730	H	0.916545	0.311860	0.595186
	H11731	H	0.979315	0.377019	0.598230
	Co11732	Co	1.004356	0.405027	0.628572
	Co11733	Co	0.941836	0.342378	0.617032
	Co11734	Co	0.879337	0.280211	0.878099
	Co11735	Co	0.941761	0.343011	0.867738
	C11736	C	0.890396	0.369367	0.924429
	C11737	C	0.954787	0.319504	0.916664
	C11738	C	0.929083	0.367469	0.571740
	C11739	C	0.992997	0.322017	0.579035
	C11740	C	0.928814	0.366947	0.916466
	C11741	C	0.993097	0.323063	0.923849
	C11742	C	0.890735	0.370437	0.579286
	C11743	C	0.954601	0.317766	0.571528
	C11744	C	0.929462	0.318104	0.667021
	C11745	C	0.992158	0.379858	0.674648
	C11746	C	0.891503	0.305762	0.829108
	C11747	C	0.953795	0.369369	0.821427
	C11748	C	0.891268	0.306580	0.673916
	C11749	C	0.954073	0.367918	0.666225
	C11750	C	0.929659	0.317356	0.822386
	C11751	C	0.991958	0.380794	0.829871
	C11752	C	0.894905	0.367197	1.001042
	C11753	C	0.959128	0.315909	0.494793
	C11754	C	0.924491	0.370104	0.995073
	C11755	C	0.988605	0.323503	0.500684
	C11756	C	0.925237	0.314495	0.745454
	C11757	C	0.987761	0.377111	0.751416
	C11758	C	0.895684	0.309870	0.750650
	C11759	C	0.958192	0.372331	0.744560
	C11760	C	0.902407	0.367039	0.999455
	C11761	C	0.966637	0.316143	0.496622
	C11762	C	0.917000	0.370280	0.996870
	C11763	C	0.981147	0.321471	0.499157
	C11764	C	0.917781	0.312801	0.746687
	C11765	C	0.980291	0.375340	0.749851
	C11766	C	0.903134	0.311983	0.749223
	C11767	C	0.965656	0.374611	0.746654
	C11768	C	0.906073	0.368635	0.914408
	C11769	C	0.970463	0.316479	0.913569
	C11770	C	0.913455	0.369013	0.581068
	C11771	C	0.977543	0.318722	0.414615
	C11772	C	0.913148	0.370085	0.913255
	C11773	C	0.977500	0.318783	0.915016
	C11774	C	0.906387	0.367666	0.582615
	C11775	C	0.970512	0.316166	0.413420
	C11776	C	0.914059	0.313304	0.831533
	C11777	C	0.976436	0.374281	0.833186
	C11778	C	0.906853	0.311501	0.664261
	C11779	C	0.969505	0.375756	0.663289
	C11780	C	0.906969	0.312861	0.832866
	C11781	C	0.969366	0.373768	0.831597
	C11782	C	0.913947	0.311987	0.662983
	C11783	C	0.976588	0.376105	0.664825
	N11784	N	0.883958	0.374728	0.954121
	N11785	N	0.948290	0.324327	0.944346
	N11786	N	0.935520	0.361996	0.542044
	N11787	N	0.999621	0.319827	0.551641
	N11788	N	0.935316	0.361894	0.944360
	N11789	N	0.999688	0.320282	0.953413
	N11790	N	0.884201	0.375125	0.551416
	N11791	N	0.948145	0.323059	0.541423
	N11792	N	0.935800	0.323755	0.695017
	N11793	N	0.998449	0.385759	0.704704
	N11794	N	0.885225	0.299534	0.801382
	N11795	N	0.947583	0.362588	0.791306
	N11796	N	0.885070	0.300034	0.703935
	N11797	N	0.947771	0.361714	0.694143
	N11798	N	0.935942	0.323219	0.792417
	N11799	N	0.998306	0.386389	0.802094
	H11800	H	0.889831	0.479860	0.349312
	H11801	H	0.954513	0.432323	0.340724
	H11802	H	0.926102	0.482161	0.146407
	H11803	H	0.989990	0.429654	0.154044
	H11804	H	0.925925	0.481065	0.342046
	H11805	H	0.990567	0.432691	0.350256
	H11806	H	0.890044	0.481924	0.153667
	H11807	H	0.953961	0.429888	0.146933
	H11808	H	0.926703	0.429667	0.091689
	H11809	H	0.989740	0.489811	0.100245
	H11810	H	0.891110	0.420219	0.404138
	H11811	H	0.953129	0.485239	0.395880
	H11812	H	0.890668	0.421832	0.099279
	H11813	H	0.953677	0.482394	0.091448
	H11814	H	0.927134	0.428216	0.396271
	H11815	H	0.989048	0.493122	0.403988
	H11816	H	0.901981	0.479674	0.650299
	H11817	H	0.965868	0.431927	0.647524
	H11818	H	0.914306	0.480842	0.149093
	H11819	H	0.978211	0.434576	0.151137
	H11820	H	0.914300	0.481958	0.647674
	H11821	H	0.978237	0.434327	0.651172
	H11822	H	0.901942	0.478602	0.151326
	H11823	H	0.965857	0.432203	0.148229
	H11824	H	0.914949	0.424247	0.095110
	H11825	H	0.977761	0.490001	0.097616
	H11826	H	0.902776	0.425564	0.400876
	H11827	H	0.965064	0.485368	0.398398
	H11828	H	0.902547	0.423175	0.097471
	H11829	H	0.965373	0.489581	0.094607
	H11830	H	0.915182	0.426533	0.398969
	H11831	H	0.977459	0.485824	0.400573
	Co11832	Co	1.002729	0.518614	0.129450
	Co11833	Co	0.940095	0.456242	0.116544
	Co11834	Co	0.877668	0.393506	0.378476
	Co11835	Co	0.940171	0.456356	0.366821
	C11836	C	0.888716	0.481842	0.423500
	C11837	C	0.953198	0.433035	0.415374
	C11838	C	0.927210	0.480483	0.071550
	C11839	C	0.991345	0.428949	0.079950
	C11840	C	0.927166	0.479926	0.416442
	C11841	C	0.991626	0.430514	0.424961
	C11842	C	0.888767	0.482776	0.079119
	C11843	C	0.952907	0.431929	0.071744
	C11844	C	0.927873	0.430921	0.166562
	C11845	C	0.990657	0.492325	0.174903
	C11846	C	0.889907	0.418968	0.329585
	C11847	C	0.952132	0.482926	0.320948
	C11848	C	0.889675	0.419945	0.174320
	C11849	C	0.952412	0.481472	0.165751
	C11850	C	0.928093	0.430270	0.321593
	C11851	C	0.990323	0.493930	0.329899
	C11852	C	0.893233	0.479725	0.500248
	C11853	C	0.957470	0.429866	-0.004984
	C11854	C	0.922780	0.482789	0.494634
	C11855	C	0.987028	0.432391	0.001341
	C11856	C	0.923701	0.427149	0.244972
	C11857	C	0.986190	0.489668	0.251336
	C11858	C	0.894072	0.422844	0.251125
	C11859	C	0.956573	0.485834	0.244186
	C11860	C	0.900716	0.479555	0.498797
	C11861	C	0.964947	0.429825	-0.003292
	C11862	C	0.915288	0.482932	0.495911
	C11863	C	0.979536	0.432748	-0.000430
	C11864	C	0.916212	0.425250	0.246842
	C11865	C	0.978719	0.487938	0.249439
	C11866	C	0.901555	0.424623	0.249369
	C11867	C	0.964051	0.487701	0.246214
	C11868	C	0.904544	0.480242	0.582454
	C11869	C	0.968639	0.431552	0.581080
	C11870	C	0.911574	0.481029	0.082160
	C11871	C	0.975664	0.433090	0.083204
	C11872	C	0.911612	0.481753	0.580785
	C11873	C	0.975711	0.433170	0.582944
	C11874	C	0.904498	0.479525	0.083310
	C11875	C	0.968583	0.431672	0.081523
	C11876	C	0.912343	0.424455	0.163140
	C11877	C	0.975024	0.488990	0.164356
	C11878	C	0.905404	0.425458	0.333105
	C11879	C	0.967743	0.486568	0.331384
	C11880	C	0.905264	0.424072	0.164191
	C11881	C	0.967926	0.488872	0.162747
	C11882	C	0.912485	0.425735	0.331949
	C11883	C	0.974839	0.486736	0.332963
	N11884	N	0.882279	0.487201	0.453719
	N11885	N	0.946668	0.437694	0.443298
	N11886	N	0.933666	0.475428	0.041348
	N11887	N	0.997858	0.424160	0.052211
	N11888	N	0.933646	0.474822	0.444240
	N11889	N	0.998022	0.424752	0.454922
	N11890	N	0.882283	0.487799	0.051299
	N11891	N	0.946481	0.437098	0.041158
	N11892	N	0.934208	0.436924	0.193839
	N11893	N	0.996877	0.498863	0.205281
	N11894	N	0.883570	0.413011	0.301658
	N11895	N	0.945928	0.476221	0.290739
	N11896	N	0.883424	0.413592	0.204531
	N11897	N	0.946087	0.475548	0.193317
	N11898	N	0.934347	0.436538	0.291563
	N11899	N	0.996669	0.499815	0.302432
	H11900	H	0.889728	0.480242	0.849292
	H11901	H	0.954436	0.432390	0.841750
	H11902	H	0.926193	0.481627	0.646215
	H11903	H	0.990131	0.430003	0.654187
	H11904	H	0.925730	0.480497	0.842077
	H11905	H	0.990459	0.432575	0.850081
	H11906	H	0.890207	0.482500	0.652789
	H11907	H	0.954059	0.429534	0.645362
	H11908	H	0.926669	0.429257	0.592852
	H11909	H	0.989596	0.490400	0.600775
	H11910	H	0.891078	0.420311	0.903971
	H11911	H	0.953092	0.485179	0.895521
	H11912	H	0.890727	0.421878	0.599595
	H11913	H	0.953736	0.481869	0.591104
	H11914	H	0.927012	0.428271	0.897009
	H11915	H	0.989122	0.492333	0.905343
	H11916	H	0.901543	0.481335	0.847325
	H11917	H	0.966258	0.428466	0.845254
	H11918	H	0.914050	0.483162	0.344476
	H11919	H	0.978709	0.430582	0.347640
	H11920	H	0.913905	0.483596	0.845104
	H11921	H	0.978587	0.430332	0.847526
	H11922	H	0.901649	0.480616	0.347059
	H11923	H	0.966360	0.428543	0.344597
	H11924	H	0.914942	0.424315	0.594981
	H11925	H	0.977762	0.489694	0.598866
	H11926	H	0.902832	0.425707	0.901316
	H11927	H	0.965009	0.485041	0.898422
	H11928	H	0.902546	0.423743	0.597532
	H11929	H	0.965369	0.489125	0.595359
	H11930	H	0.915220	0.426189	0.898376
	H11931	H	0.977397	0.486120	0.902313
	Co11932	Co	1.002614	0.518813	0.629601
	Co11933	Co	0.940178	0.455996	0.616830
	Co11934	Co	0.877581	0.393898	0.878660
	Co11935	Co	0.940107	0.456568	0.866876
	C11936	C	0.888630	0.482035	0.924207
	C11937	C	0.953138	0.433121	0.916115
	C11938	C	0.927281	0.480178	0.571609
	C11939	C	0.991408	0.429142	0.579925
	C11940	C	0.927027	0.479646	0.916232
	C11941	C	0.991562	0.430307	0.924454
	C11942	C	0.888914	0.483067	0.578807
	C11943	C	0.952973	0.431586	0.570606
	C11944	C	0.927912	0.430719	0.666499
	C11945	C	0.990600	0.492555	0.675523
	C11946	C	0.889856	0.419291	0.829553
	C11947	C	0.952142	0.482819	0.820865
	C11948	C	0.889700	0.419954	0.674244
	C11949	C	0.952468	0.481085	0.665546
	C11950	C	0.928103	0.430193	0.821969
	C11951	C	0.990373	0.493476	0.830633
	C11952	C	0.893137	0.479644	1.001034
	C11953	C	0.957527	0.429727	0.493915
	C11954	C	0.922685	0.482636	0.994780
	C11955	C	0.987082	0.432775	0.501685
	C11956	C	0.923674	0.426863	0.745017
	C11957	C	0.986182	0.489521	0.752213
	C11958	C	0.894128	0.423085	0.751194
	C11959	C	0.956605	0.485397	0.744108
	C11960	C	0.900633	0.479383	0.999442
	C11961	C	0.965017	0.429778	0.495947
	C11962	C	0.915206	0.482649	0.996755
	C11963	C	0.979598	0.433021	0.499757
	C11964	C	0.916216	0.425146	0.746390
	C11965	C	0.978720	0.487692	0.750492
	C11966	C	0.901558	0.424845	0.749710
	C11967	C	0.964073	0.487197	0.746557
	C11968	C	0.904273	0.480957	0.914245
	C11969	C	0.968800	0.429684	0.913067
	C11970	C	0.911468	0.482379	0.412148
	C11971	C	0.975979	0.431176	0.414487
	C11972	C	0.911338	0.482565	0.912987
	C11973	C	0.975877	0.430846	0.914370
	C11974	C	0.904390	0.480723	0.413664
	C11975	C	0.968897	0.429683	0.412568
	C11976	C	0.912365	0.424620	0.662801
	C11977	C	0.975035	0.488645	0.665409
	C11978	C	0.905400	0.425514	0.833213
	C11979	C	0.967752	0.486203	0.831937
	C11980	C	0.905254	0.424385	0.664611
	C11981	C	0.967943	0.488403	0.663415
	C11982	C	0.912516	0.425626	0.831527
	C11983	C	0.974840	0.486584	0.833914
	N11984	N	0.882195	0.487359	0.954010
	N11985	N	0.946618	0.437776	0.943800
	N11986	N	0.933710	0.474982	0.541610
	N11987	N	0.997875	0.423986	0.552232
	N11988	N	0.933545	0.474943	0.943900
	N11989	N	0.997998	0.424915	0.954640
	N11990	N	0.882411	0.487893	0.551191
	N11991	N	0.946526	0.436858	0.540544
	N11992	N	0.934208	0.436855	0.694337
	N11993	N	0.996817	0.498968	0.705433
	N11994	N	0.883588	0.413123	0.801507
	N11995	N	0.945911	0.476316	0.790560
	N11996	N	0.883485	0.413543	0.704231
	N11997	N	0.946130	0.475297	0.693091
	N11998	N	0.934319	0.436596	0.791734
	N11999	N	0.996688	0.499452	0.802965
	H12000	H	0.887957	0.591945	0.348784
	H12001	H	0.952747	0.545017	0.340826
	H12002	H	0.924531	0.594582	0.145770
	H12003	H	0.988430	0.542599	0.155565
	H12004	H	0.924074	0.593267	0.341253
	H12005	H	0.988784	0.545867	0.351153
	H12006	H	0.888485	0.595017	0.153656
	H12007	H	0.952249	0.542191	0.145569
	H12008	H	0.924880	0.542015	0.091358
	H12009	H	0.987856	0.602727	0.100676
	H12010	H	0.889372	0.532086	0.403460
	H12011	H	0.951314	0.597188	0.394748
	H12012	H	0.888794	0.534751	0.099739
	H12013	H	0.951863	0.594980	0.090168
	H12014	H	0.925310	0.540615	0.394977
	H12015	H	0.987236	0.605448	0.404808
	H12016	H	0.899858	0.593658	0.347080
	H12017	H	0.964582	0.541099	0.344075
	H12018	H	0.912270	0.595947	-0.155548
	H12019	H	0.977012	0.542664	-0.151343
	H12020	H	0.912247	0.596117	0.344276
	H12021	H	0.976929	0.543613	0.347713
	H12022	H	0.899893	0.593737	-0.152889
	H12023	H	0.964662	0.540299	-0.155204
	H12024	H	0.913167	0.536401	0.093810
	H12025	H	0.975955	0.602739	0.097961
	H12026	H	0.901068	0.538500	0.400711
	H12027	H	0.963166	0.597983	0.398196
	H12028	H	0.900773	0.535373	0.096836
	H12029	H	0.963579	0.601645	0.094340
	H12030	H	0.913444	0.539339	0.397634
	H12031	H	0.975580	0.598595	0.401617
	Co12032	Co	1.000846	0.630958	0.129825
	Co12033	Co	0.938421	0.568524	0.115701
	Co12034	Co	0.875874	0.506099	0.377999
	Co12035	Co	0.938345	0.568686	0.365850
	C12036	C	0.886902	0.594100	0.423934
	C12037	C	0.951431	0.545706	0.414971
	C12038	C	0.925595	0.592851	0.071158
	C12039	C	0.989654	0.541898	0.080809
	C12040	C	0.925344	0.592241	0.415318
	C12041	C	0.989817	0.543502	0.425349
	C12042	C	0.887175	0.595606	0.079191
	C12043	C	0.951202	0.544046	0.070584
	C12044	C	0.926126	0.543273	0.165702
	C12045	C	0.988832	0.604881	0.175491
	C12046	C	0.888142	0.531295	0.329414
	C12047	C	0.950347	0.595070	0.320203
	C12048	C	0.887844	0.532595	0.174366
	C12049	C	0.950622	0.594071	0.164596
	C12050	C	0.926303	0.542577	0.320946
	C12051	C	0.988530	0.606262	0.330596
	C12052	C	0.891448	0.592130	0.500482
	C12053	C	0.955729	0.542316	-0.006192
	C12054	C	0.921053	0.595352	0.493996
	C12055	C	0.985370	0.545131	0.002317
	C12056	C	0.921901	0.539501	0.244024
	C12057	C	0.984370	0.602170	0.252101
	C12058	C	0.892311	0.535395	0.250955
	C12059	C	0.954789	0.598085	0.243454
	C12060	C	0.898957	0.592114	0.498849
	C12061	C	0.963233	0.542244	-0.003806
	C12062	C	0.913558	0.595375	0.495877
	C12063	C	0.977844	0.545356	0.000335
	C12064	C	0.914432	0.537738	0.245573
	C12065	C	0.976893	0.600354	0.249985
	C12066	C	0.899758	0.537211	0.248897
	C12067	C	0.962233	0.599955	0.246004
	C12068	C	0.902612	0.593666	0.413776
	C12069	C	0.967108	0.542338	0.412165
	C12070	C	0.909709	0.594881	-0.087746
	C12071	C	0.974214	0.543248	-0.084958
	C12072	C	0.909684	0.595185	0.412198
	C12073	C	0.974170	0.543774	0.414266
	C12074	C	0.902631	0.593558	-0.086257
	C12075	C	0.967152	0.541885	-0.086929
	C12076	C	0.910572	0.536821	0.161960
	C12077	C	0.973219	0.601375	0.164557
	C12078	C	0.903629	0.538154	0.332524
	C12079	C	0.965897	0.598993	0.331559
	C12080	C	0.903472	0.536481	0.163750
	C12081	C	0.966129	0.601018	0.162740
	C12082	C	0.910728	0.538449	0.330946
	C12083	C	0.972996	0.599223	0.333444
	N12084	N	0.880473	0.599502	0.453835
	N12085	N	0.944908	0.550302	0.442825
	N12086	N	0.932058	0.587920	0.040984
	N12087	N	0.996185	0.537215	0.052967
	N12088	N	0.931878	0.587462	0.442802
	N12089	N	0.996268	0.538403	0.455680
	N12090	N	0.880658	0.600201	0.051354
	N12091	N	0.944758	0.549359	0.040088
	N12092	N	0.932436	0.549258	0.193398
	N12093	N	0.995056	0.611202	0.205696
	N12094	N	0.881811	0.525479	0.301917
	N12095	N	0.944131	0.588558	0.289698
	N12096	N	0.881627	0.526179	0.204276
	N12097	N	0.944311	0.587994	0.192329
	N12098	N	0.932547	0.548801	0.290753
	N12099	N	0.994866	0.612039	0.302941
	H12100	H	0.888018	0.592223	0.849467
	H12101	H	0.952750	0.545036	0.840322
	H12102	H	0.924513	0.594833	0.645883
	H12103	H	0.988309	0.542703	0.655164
	H12104	H	0.924149	0.593292	0.841087
	H12105	H	0.988836	0.545190	0.850440
	H12106	H	0.888381	0.595079	0.652863
	H12107	H	0.952253	0.542437	0.645658
	H12108	H	0.924928	0.542476	0.590825
	H12109	H	0.988046	0.602281	0.600751
	H12110	H	0.889414	0.532673	0.903774
	H12111	H	0.951439	0.597272	0.895998
	H12112	H	0.889024	0.534479	0.598691
	H12113	H	0.951990	0.594803	0.590994
	H12114	H	0.925377	0.541080	0.896154
	H12115	H	0.987406	0.605311	0.904870
	H12116	H	0.900242	0.591075	1.150080
	H12117	H	0.964126	0.544918	1.148889
	H12118	H	0.912621	0.594003	0.647899
	H12119	H	0.976412	0.546546	0.651459
	H12120	H	0.912663	0.593144	1.147569
	H12121	H	0.976457	0.547257	1.151658
	H12122	H	0.900275	0.591647	0.650407
	H12123	H	0.964073	0.544232	0.647997
	H12124	H	0.913545	0.538529	0.898306
	H12125	H	0.976030	0.602475	0.597938
	H12126	H	0.900818	0.536416	0.597079
	H12127	H	0.963326	0.597138	0.898235
	H12128	H	0.901142	0.537679	0.901238
	H12129	H	0.963635	0.601773	0.594869
	H12130	H	0.913212	0.537571	0.594062
	H12131	H	0.975741	0.597847	0.901280
	Co12132	Co	1.000864	0.631420	0.630020
	Co12133	Co	0.938411	0.568875	0.615660
	Co12134	Co	0.875867	0.506557	0.877826
	Co12135	Co	0.938398	0.568984	0.866381
	C12136	C	0.886966	0.594263	0.923794
	C12137	C	0.951449	0.545656	0.915112
	C12138	C	0.925564	0.593219	0.570606
	C12139	C	0.989579	0.542000	0.580772
	C12140	C	0.925416	0.592262	0.915868
	C12141	C	0.989858	0.543136	0.925702
	C12142	C	0.887130	0.595600	0.578830
	C12143	C	0.951190	0.544334	0.570743
	C12144	C	0.926143	0.543612	0.665321
	C12145	C	0.988940	0.604774	0.675552
	C12146	C	0.888162	0.531533	0.829010
	C12147	C	0.950435	0.595218	0.820946
	C12148	C	0.887968	0.532523	0.673616
	C12149	C	0.950716	0.593968	0.665551
	C12150	C	0.926368	0.542855	0.820584
	C12151	C	0.988641	0.606163	0.830407
	C12152	C	0.891498	0.592418	1.000682
	C12153	C	0.955714	0.542456	0.493738
	C12154	C	0.921076	0.595090	0.994361
	C12155	C	0.985290	0.545330	0.502091
	C12156	C	0.921954	0.539734	0.743947
	C12157	C	0.984490	0.601918	0.752005
	C12158	C	0.892391	0.535427	0.750610
	C12159	C	0.954880	0.598004	0.744378
	C12160	C	0.898985	0.592165	0.998859
	C12161	C	0.963217	0.542335	0.495630
	C12162	C	0.913576	0.595075	0.995923
	C12163	C	0.977783	0.545374	0.499810
	C12164	C	0.914501	0.537793	0.745989
	C12165	C	0.977015	0.600098	0.750053
	C12166	C	0.899862	0.537221	0.749426
	C12167	C	0.962364	0.599741	0.746438
	C12168	C	0.902830	0.592194	1.082490
	C12169	C	0.966844	0.544402	1.081740
	C12170	C	0.909903	0.593923	0.581022
	C12171	C	0.973890	0.545338	0.583235
	C12172	C	0.909911	0.593535	1.080995
	C12173	C	0.973913	0.545772	1.083835
	C12174	C	0.902830	0.592547	0.582413
	C12175	C	0.966830	0.543985	0.581119
	C12176	C	0.910809	0.537930	0.831452
	C12177	C	0.973316	0.601254	0.664725
	C12178	C	0.903531	0.537006	0.663922
	C12179	C	0.966054	0.598523	0.831603
	C12180	C	0.903718	0.537663	0.833095
	C12181	C	0.966225	0.601005	0.662953
	C12182	C	0.910629	0.537440	0.662224
	C12183	C	0.973149	0.598742	0.833416
	N12184	N	0.880530	0.599465	0.954209
	N12185	N	0.944926	0.550241	0.942598
	N12186	N	0.932016	0.588024	0.540415
	N12187	N	0.996109	0.537457	0.553046
	N12188	N	0.931937	0.587556	0.943347
	N12189	N	0.996312	0.537939	0.955651
	N12190	N	0.880635	0.600422	0.551108
	N12191	N	0.944748	0.549544	0.540250
	N12192	N	0.932454	0.549689	0.692899
	N12193	N	0.995174	0.611271	0.705857
	N12194	N	0.881836	0.525713	0.800832
	N12195	N	0.944202	0.588811	0.790590
	N12196	N	0.881722	0.526266	0.703737
	N12197	N	0.944380	0.588068	0.693172
	N12198	N	0.932590	0.549258	0.790385
	N12199	N	0.994975	0.612038	0.803230
	H12200	H	0.886205	0.704737	0.349221
	H12201	H	0.950897	0.657295	0.340575
	H12202	H	0.922755	0.707264	0.145594
	H12203	H	0.986592	0.655487	0.155456
	H12204	H	0.922254	0.705400	0.340333
	H12205	H	0.987025	0.657823	0.350082
	H12206	H	0.886667	0.707248	0.153781
	H12207	H	0.950497	0.654634	0.145770
	H12208	H	0.923135	0.655031	0.090645
	H12209	H	0.986103	0.715095	0.101408
	H12210	H	0.887705	0.644433	0.403134
	H12211	H	0.949540	0.709864	0.395660
	H12212	H	0.887144	0.647507	0.098988
	H12213	H	0.950156	0.707059	0.090794
	H12214	H	0.923593	0.652955	0.395263
	H12215	H	0.985538	0.718020	0.405635
	H12216	H	0.898037	0.705838	0.347277
	H12217	H	0.962761	0.653294	0.343895
	H12218	H	0.910863	0.706134	0.147474
	H12219	H	0.975264	0.655566	-0.151890
	H12220	H	0.910380	0.708038	0.344126
	H12221	H	0.975143	0.655742	0.347364
	H12222	H	0.898503	0.703459	0.150230
	H12223	H	0.962897	0.652878	-0.155305
	H12224	H	0.911442	0.648731	0.094084
	H12225	H	0.974217	0.714238	0.098032
	H12226	H	0.899342	0.650847	0.399640
	H12227	H	0.961423	0.710454	0.398587
	H12228	H	0.899023	0.648266	0.096373
	H12229	H	0.961817	0.713505	0.094745
	H12230	H	0.911760	0.651539	0.396933
	H12231	H	0.973874	0.710946	0.401998
	Co12232	Co	0.999048	0.743717	0.129666
	Co12233	Co	0.936637	0.680964	0.115742
	Co12234	Co	0.874093	0.618595	0.378176
	Co12235	Co	0.936588	0.681346	0.365857
	C12236	C	0.885146	0.706818	0.423975
	C12237	C	0.949609	0.657982	0.414907
	C12238	C	0.923819	0.705376	0.070543
	C12239	C	0.987877	0.654590	0.081082
	C12240	C	0.923524	0.704569	0.415083
	C12241	C	0.988034	0.655802	0.425246
	C12242	C	0.885399	0.707946	0.079325
	C12243	C	0.949469	0.656607	0.070558
	C12244	C	0.924367	0.655904	0.164986
	C12245	C	0.987056	0.717474	0.175945
	C12246	C	0.886436	0.643741	0.328902
	C12247	C	0.948585	0.707508	0.320675
	C12248	C	0.886161	0.645149	0.173731
	C12249	C	0.948885	0.706247	0.165247
	C12250	C	0.924587	0.654886	0.320223
	C12251	C	0.986799	0.718804	0.331291
	C12252	C	0.889642	0.704788	0.501032
	C12253	C	0.954020	0.654673	-0.006186
	C12254	C	0.919210	0.707697	0.493829
	C12255	C	0.983581	0.657882	0.002116
	C12256	C	0.920178	0.651942	0.243444
	C12257	C	0.982604	0.714604	0.252707
	C12258	C	0.890598	0.647848	0.250410
	C12259	C	0.953051	0.710399	0.244062
	C12260	C	0.897127	0.704667	0.499269
	C12261	C	0.961514	0.654660	-0.003724
	C12262	C	0.911710	0.707838	0.495765
	C12263	C	0.976089	0.657878	0.000040
	C12264	C	0.912710	0.650031	0.245139
	C12265	C	0.975146	0.712697	0.250566
	C12266	C	0.898069	0.649675	0.248393
	C12267	C	0.960504	0.712153	0.246437
	C12268	C	0.900772	0.705907	0.413897
	C12269	C	0.965309	0.654427	0.412026
	C12270	C	0.908133	0.706389	0.080710
	C12271	C	0.972488	0.655919	-0.085379
	C12272	C	0.907841	0.707348	0.412153
	C12273	C	0.972366	0.655863	0.413983
	C12274	C	0.901072	0.704737	0.082556
	C12275	C	0.965419	0.654373	-0.087201
	C12276	C	0.908841	0.649324	0.161673
	C12277	C	0.971486	0.713476	0.164972
	C12278	C	0.901936	0.650382	0.331892
	C12279	C	0.964172	0.711324	0.331907
	C12280	C	0.901748	0.649075	0.163078
	C12281	C	0.964387	0.713009	0.162982
	C12282	C	0.909036	0.650636	0.330378
	C12283	C	0.971279	0.711609	0.334004
	N12284	N	0.878696	0.711925	0.453892
	N12285	N	0.943075	0.662715	0.442585
	N12286	N	0.930240	0.700066	0.040252
	N12287	N	0.994392	0.649799	0.053265
	N12288	N	0.930044	0.699825	0.442833
	N12289	N	0.994472	0.650584	0.455422
	N12290	N	0.878874	0.712448	0.051313
	N12291	N	0.943034	0.661891	0.040062
	N12292	N	0.930673	0.661855	0.192867
	N12293	N	0.993268	0.723968	0.206173
	N12294	N	0.880103	0.637865	0.301300
	N12295	N	0.942371	0.701121	0.290375
	N12296	N	0.879941	0.638618	0.203800
	N12297	N	0.942579	0.700238	0.192967
	N12298	N	0.930825	0.661250	0.290300
	N12299	N	0.993097	0.724748	0.303327
	H12300	H	0.886269	0.704378	0.849477
	H12301	H	0.951020	0.657187	0.840471
	H12302	H	0.922672	0.707471	0.645107
	H12303	H	0.986539	0.654520	0.654662
	H12304	H	0.922316	0.705249	0.840761
	H12305	H	0.987049	0.657665	0.850615
	H12306	H	0.886577	0.707196	0.653633
	H12307	H	0.950415	0.654706	0.645258
	H12308	H	0.923032	0.655127	0.590944
	H12309	H	0.986220	0.714770	0.600835
	H12310	H	0.887647	0.644693	0.903692
	H12311	H	0.949628	0.709631	0.895095
	H12312	H	0.887130	0.647073	0.599530
	H12313	H	0.950204	0.707263	0.590989
	H12314	H	0.923625	0.652759	0.895440
	H12315	H	0.985529	0.718013	0.904604
	H12316	H	0.898080	0.706718	0.847307
	H12317	H	0.962394	0.657203	1.148757
	H12318	H	0.910785	0.706681	0.647788
	H12319	H	0.974598	0.658739	0.651461
	H12320	H	0.910473	0.708919	0.844361
	H12321	H	0.974735	0.659376	1.151663
	H12322	H	0.898427	0.704196	0.650449
	H12323	H	0.962278	0.656328	0.648289
	H12324	H	0.911394	0.649156	0.594127
	H12325	H	0.974262	0.714374	0.597259
	H12326	H	0.899305	0.651002	0.900850
	H12327	H	0.961554	0.710210	0.897654
	H12328	H	0.898980	0.648453	0.596450
	H12329	H	0.961854	0.713721	0.594324
	H12330	H	0.911683	0.651880	0.897861
	H12331	H	0.973964	0.710896	0.900946
	Co12332	Co	0.999189	0.743548	0.629895
	Co12333	Co	0.936579	0.681324	0.615659
	Co12334	Co	0.874139	0.618449	0.878007
	Co12335	Co	0.936678	0.681036	0.865560
	C12336	C	0.885201	0.706495	0.923788
	C12337	C	0.949722	0.657995	0.915026
	C12338	C	0.923720	0.705598	0.570456
	C12339	C	0.987771	0.654186	0.580151
	C12340	C	0.923609	0.704450	0.915092
	C12341	C	0.988105	0.655753	0.925362
	C12342	C	0.885317	0.707950	0.579167
	C12343	C	0.949376	0.656691	0.570498
	C12344	C	0.924310	0.656147	0.665289
	C12345	C	0.987179	0.717233	0.675441
	C12346	C	0.886385	0.643571	0.829233
	C12347	C	0.948663	0.707441	0.820407
	C12348	C	0.886109	0.645011	0.673840
	C12349	C	0.948943	0.706274	0.665322
	C12350	C	0.924583	0.655014	0.820507
	C12351	C	0.986840	0.718886	0.830390
	C12352	C	0.889708	0.704692	1.000822
	C12353	C	0.953886	0.654685	0.493474
	C12354	C	0.919297	0.707685	0.993816
	C12355	C	0.983497	0.657521	0.501419
	C12356	C	0.920128	0.652064	0.743974
	C12357	C	0.982696	0.714441	0.751734
	C12358	C	0.890563	0.647800	0.750664
	C12359	C	0.953135	0.710361	0.743914
	C12360	C	0.897209	0.704666	0.999053
	C12361	C	0.961410	0.654410	0.495625
	C12362	C	0.911791	0.707917	0.995691
	C12363	C	0.975990	0.657557	0.499485
	C12364	C	0.912661	0.650327	0.745809
	C12365	C	0.975240	0.712508	0.749406
	C12366	C	0.898011	0.649730	0.748881
	C12367	C	0.960595	0.712095	0.745814
	C12368	C	0.900846	0.706392	0.913876
	C12369	C	0.965123	0.656734	1.081721
	C12370	C	0.908060	0.706517	0.580912
	C12371	C	0.972078	0.657489	0.583198
	C12372	C	0.907918	0.707849	0.912229
	C12373	C	0.972195	0.658094	1.083659
	C12374	C	0.900992	0.704973	0.582684
	C12375	C	0.965021	0.656107	0.581350
	C12376	C	0.908802	0.649511	0.662090
	C12377	C	0.971555	0.713287	0.664027
	C12378	C	0.901867	0.650546	0.832648
	C12379	C	0.964283	0.711255	0.831061
	C12380	C	0.901695	0.649237	0.663497
	C12381	C	0.964445	0.713078	0.662234
	C12382	C	0.908969	0.650981	0.830974
	C12383	C	0.971378	0.711485	0.832892
	N12384	N	0.878733	0.711599	0.954094
	N12385	N	0.943203	0.662643	0.942396
	N12386	N	0.930162	0.700408	0.540379
	N12387	N	0.994304	0.649691	0.553084
	N12388	N	0.930105	0.699464	0.942695
	N12389	N	0.994524	0.650419	0.955967
	N12390	N	0.878815	0.712643	0.551207
	N12391	N	0.942913	0.661945	0.540081
	N12392	N	0.930630	0.662069	0.692915
	N12393	N	0.993381	0.723870	0.705963
	N12394	N	0.880069	0.637776	0.801406
	N12395	N	0.942448	0.701097	0.790197
	N12396	N	0.879907	0.638517	0.704024
	N12397	N	0.942617	0.700433	0.692899
	N12398	N	0.930806	0.661370	0.790024
	N12399	N	0.993165	0.724903	0.803185
	H12400	H	0.884496	0.817580	0.348917
	H12401	H	0.949225	0.769711	0.340562
	H12402	H	0.920807	0.820067	0.144572
	H12403	H	0.984673	0.767435	0.155463
	H12404	H	0.920571	0.817919	0.340884
	H12405	H	0.985306	0.770507	0.350405
	H12406	H	0.884869	0.820075	0.152992
	H12407	H	0.948705	0.767261	0.145694
	H12408	H	0.921317	0.767583	0.090660
	H12409	H	0.984355	0.827249	0.100078
	H12410	H	0.885824	0.757459	0.403432
	H12411	H	0.947785	0.821965	0.395640
	H12412	H	0.885348	0.759487	0.099142
	H12413	H	0.948323	0.820511	0.090998
	H12414	H	0.921886	0.764883	0.395494
	H12415	H	0.983805	0.829974	0.404305
	H12416	H	0.896370	0.818556	0.346877
	H12417	H	0.960599	0.769033	0.648444
	H12418	H	0.909048	0.818416	0.147002
	H12419	H	0.973344	0.768132	-0.152344
	H12420	H	0.908756	0.820496	0.343865
	H12421	H	0.972916	0.771431	0.651792
	H12422	H	0.896668	0.815886	0.149567
	H12423	H	0.960994	0.765804	-0.155848
	H12424	H	0.909666	0.761362	0.094350
	H12425	H	0.972106	0.823276	0.400965
	H12426	H	0.897567	0.763308	0.400572
	H12427	H	0.960006	0.826396	0.095566
	H12428	H	0.897256	0.760791	0.097000
	H12429	H	0.959699	0.822873	0.397929
	H12430	H	0.909970	0.763798	0.397807
	H12431	H	0.972414	0.826532	0.097700
	Co12432	Co	0.997364	0.855712	0.129481
	Co12433	Co	0.934840	0.793970	0.115719
	Co12434	Co	0.872329	0.731063	0.377932
	Co12435	Co	0.934866	0.793608	0.365697
	C12436	C	0.883456	0.819752	0.423595
	C12437	C	0.947916	0.770347	0.415057
	C12438	C	0.921953	0.818089	0.070115
	C12439	C	0.986002	0.766769	0.080971
	C12440	C	0.921870	0.816984	0.415109
	C12441	C	0.986335	0.768289	0.425483
	C12442	C	0.883576	0.820774	0.078974
	C12443	C	0.947607	0.769269	0.070707
	C12444	C	0.922561	0.768484	0.165109
	C12445	C	0.985316	0.829492	0.174701
	C12446	C	0.884582	0.756459	0.329096
	C12447	C	0.946855	0.820045	0.320693
	C12448	C	0.884358	0.757416	0.173797
	C12449	C	0.947126	0.819213	0.165542
	C12450	C	0.922833	0.767178	0.320594
	C12451	C	0.985034	0.830939	0.329836
	C12452	C	0.887971	0.817649	0.500461
	C12453	C	0.952134	0.767103	-0.005975
	C12454	C	0.917552	0.820015	0.493524
	C12455	C	0.981694	0.770060	0.002066
	C12456	C	0.918406	0.764235	0.243802
	C12457	C	0.980880	0.826711	0.251499
	C12458	C	0.888778	0.760442	0.250616
	C12459	C	0.951263	0.823262	0.244275
	C12460	C	0.895468	0.817342	0.498390
	C12461	C	0.959615	0.766991	-0.004068
	C12462	C	0.910045	0.820199	0.494987
	C12463	C	0.974202	0.770107	-0.000242
	C12464	C	0.910935	0.762470	0.245710
	C12465	C	0.973418	0.824923	0.249733
	C12466	C	0.896255	0.762263	0.248938
	C12467	C	0.958743	0.824944	0.246482
	C12468	C	0.899117	0.818446	0.413227
	C12469	C	0.963331	0.768707	0.581444
	C12470	C	0.906306	0.818613	0.080460
	C12471	C	0.970586	0.768404	-0.085614
	C12472	C	0.906189	0.819808	0.411473
	C12473	C	0.970399	0.770123	0.583521
	C12474	C	0.899222	0.817069	0.081836
	C12475	C	0.963509	0.766976	-0.087565
	C12476	C	0.907064	0.761773	0.162168
	C12477	C	0.969536	0.824036	0.333037
	C12478	C	0.900132	0.762884	0.332539
	C12479	C	0.962624	0.825803	0.163147
	C12480	C	0.899968	0.761604	0.163933
	C12481	C	0.962442	0.823860	0.331557
	C12482	C	0.907241	0.763097	0.331049
	C12483	C	0.969720	0.825771	0.164623
	N12484	N	0.877023	0.825219	0.454002
	N12485	N	0.941397	0.775013	0.442236
	N12486	N	0.928380	0.812943	0.040044
	N12487	N	0.992545	0.762427	0.053466
	N12488	N	0.928386	0.812193	0.442956
	N12489	N	0.992788	0.762967	0.455806
	N12490	N	0.877105	0.825910	0.051173
	N12491	N	0.941168	0.774614	0.040589
	N12492	N	0.928854	0.774593	0.192738
	N12493	N	0.991532	0.836007	0.205022
	N12494	N	0.878254	0.750476	0.301146
	N12495	N	0.940637	0.813590	0.290133
	N12496	N	0.878122	0.750974	0.203714
	N12497	N	0.940807	0.813098	0.193008
	N12498	N	0.929040	0.773780	0.290151
	N12499	N	0.991359	0.836834	0.302549
	H12500	H	0.884386	0.817440	0.848512
	H12501	H	0.949090	0.769618	0.841226
	H12502	H	0.920946	0.819575	0.645336
	H12503	H	0.984814	0.766981	0.655283
	H12504	H	0.920401	0.818017	0.840395
	H12505	H	0.985202	0.770542	0.851138
	H12506	H	0.884966	0.820524	0.653743
	H12507	H	0.948721	0.766902	0.644144
	H12508	H	0.921384	0.767179	0.590146
	H12509	H	0.984440	0.827289	0.600099
	H12510	H	0.885860	0.757352	0.902552
	H12511	H	0.947829	0.822094	0.895159
	H12512	H	0.885279	0.760002	0.599074
	H12513	H	0.948477	0.819371	0.590804
	H12514	H	0.921759	0.765732	0.894683
	H12515	H	0.983773	0.830185	0.904585
	H12516	H	0.896284	0.818889	0.846291
	H12517	H	0.960514	0.769093	1.148283
	H12518	H	0.909119	0.818786	0.646338
	H12519	H	0.973478	0.767991	0.348132
	H12520	H	0.908594	0.821355	0.843402
	H12521	H	0.972884	0.771635	1.151020
	H12522	H	0.896758	0.816823	0.649533
	H12523	H	0.961102	0.765885	0.344182
	H12524	H	0.909568	0.761706	0.593933
	H12525	H	0.972176	0.822770	0.900570
	H12526	H	0.897481	0.763690	0.899824
	H12527	H	0.960099	0.826512	0.594453
	H12528	H	0.897152	0.761256	0.596246
	H12529	H	0.959730	0.822181	0.897442
	H12530	H	0.909856	0.764334	0.896894
	H12531	H	0.972459	0.826959	0.597587
	Co12532	Co	0.997367	0.855945	0.628898
	Co12533	Co	0.934871	0.793385	0.615394
	Co12534	Co	0.872377	0.730651	0.878234
	Co12535	Co	0.934768	0.793744	0.865461
	C12536	C	0.883355	0.819513	0.923451
	C12537	C	0.947810	0.770442	0.915570
	C12538	C	0.922042	0.817740	0.570356
	C12539	C	0.986099	0.766611	0.580895
	C12540	C	0.921745	0.817073	0.914650
	C12541	C	0.986262	0.768286	0.925463
	C12542	C	0.883674	0.821053	0.579089
	C12543	C	0.947676	0.769154	0.570040
	C12544	C	0.922530	0.768313	0.664714
	C12545	C	0.985356	0.829485	0.674937
	C12546	C	0.884578	0.756311	0.828499
	C12547	C	0.946864	0.819845	0.820349
	C12548	C	0.884307	0.757557	0.673399
	C12549	C	0.947187	0.818460	0.664953
	C12550	C	0.922704	0.767657	0.819792
	C12551	C	0.985035	0.831001	0.830138
	C12552	C	0.887906	0.817255	1.000453
	C12553	C	0.952214	0.767121	0.493629
	C12554	C	0.917395	0.820262	0.993375
	C12555	C	0.981802	0.770084	0.502282
	C12556	C	0.918311	0.764522	0.742930
	C12557	C	0.980919	0.826676	0.751485
	C12558	C	0.888715	0.760639	0.750035
	C12559	C	0.951314	0.822754	0.743781
	C12560	C	0.895356	0.817004	0.998460
	C12561	C	0.959718	0.767061	0.495858
	C12562	C	0.909922	0.820342	0.995264
	C12563	C	0.974309	0.770176	0.500207
	C12564	C	0.910844	0.762801	0.744922
	C12565	C	0.973454	0.824830	0.749510
	C12566	C	0.896182	0.762519	0.748302
	C12567	C	0.958799	0.824575	0.745982
	C12568	C	0.898991	0.818662	0.913177
	C12569	C	0.963244	0.768762	1.081290
	C12570	C	0.906386	0.818988	0.580055
	C12571	C	0.970690	0.768472	0.414718
	C12572	C	0.906066	0.820291	0.911570
	C12573	C	0.970323	0.770184	1.083132
	C12574	C	0.899321	0.817652	0.581669
	C12575	C	0.963624	0.767050	0.412557
	C12576	C	0.906960	0.762147	0.661670
	C12577	C	0.969571	0.823642	0.832929
	C12578	C	0.900055	0.763216	0.831704
	C12579	C	0.962659	0.825697	0.662648
	C12580	C	0.899865	0.761978	0.663025
	C12581	C	0.962473	0.823442	0.831164
	C12582	C	0.907145	0.763440	0.830125
	C12583	C	0.969749	0.825873	0.664335
	N12584	N	0.876945	0.825069	0.953704
	N12585	N	0.941313	0.775307	0.942872
	N12586	N	0.928493	0.812606	0.540391
	N12587	N	0.992620	0.761992	0.553251
	N12588	N	0.928242	0.812276	0.942617
	N12589	N	0.992697	0.763254	0.956256
	N12590	N	0.877170	0.825985	0.551336
	N12591	N	0.941246	0.774372	0.539607
	N12592	N	0.928858	0.774260	0.692512
	N12593	N	0.991552	0.836201	0.705220
	N12594	N	0.878290	0.750182	0.801051
	N12595	N	0.940661	0.813265	0.789567
	N12596	N	0.878105	0.750959	0.703561
	N12597	N	0.940863	0.812489	0.692667
	N12598	N	0.928954	0.773927	0.789790
	N12599	N	0.991362	0.837035	0.802611
	H12600	H	0.882983	0.925794	0.347184
	H12601	H	0.947364	0.882403	0.341937
	H12602	H	0.919291	0.933411	0.145184
	H12603	H	0.982997	0.879486	0.154858
	H12604	H	0.918926	0.931486	0.340178
	H12605	H	0.983469	0.882452	0.350068
	H12606	H	0.883318	0.928257	0.151766
	H12607	H	0.946969	0.880066	0.146486
	H12608	H	0.919766	0.880527	0.091447
	H12609	H	0.982753	0.940588	0.099659
	H12610	H	0.884261	0.870342	0.402953
	H12611	H	0.946291	0.934796	0.395387
	H12612	H	0.883842	0.871920	0.098494
	H12613	H	0.946821	0.932475	0.090254
	H12614	H	0.920245	0.878482	0.395845
	H12615	H	0.982210	0.943042	0.403753
	H12616	H	0.894749	0.931036	0.346853
	H12617	H	0.959193	0.878524	0.345110
	H12618	H	0.907109	0.935462	-0.155548
	H12619	H	0.971651	0.879989	-0.151697
	H12620	H	0.907044	0.935146	0.344829
	H12621	H	0.971568	0.880618	0.347832
	H12622	H	0.894817	0.931059	-0.153639
	H12623	H	0.959261	0.877913	-0.154470
	H12624	H	0.908100	0.874061	0.095175
	H12625	H	0.970936	0.939495	0.098073
	H12626	H	0.895937	0.875705	0.399837
	H12627	H	0.958177	0.935071	0.396832
	H12628	H	0.895729	0.873359	0.097056
	H12629	H	0.958461	0.938894	0.094874
	H12630	H	0.908357	0.876522	0.397395
	H12631	H	0.970639	0.935897	0.399223
	Co12632	Co	0.995651	0.969500	0.127951
	Co12633	Co	0.933184	0.906888	0.115762
	Co12634	Co	0.870692	0.844590	0.378075
	Co12635	Co	0.933151	0.907288	0.366506
	C12636	C	0.881862	0.926983	0.422050
	C12637	C	0.946068	0.883418	0.416012
	C12638	C	0.920419	0.931482	0.070395
	C12639	C	0.984334	0.879052	0.080624
	C12640	C	0.920188	0.930838	0.414942
	C12641	C	0.984497	0.880551	0.425163
	C12642	C	0.882031	0.928365	0.077301
	C12643	C	0.945951	0.882057	0.071695
	C12644	C	0.920979	0.881288	0.165924
	C12645	C	0.983700	0.942756	0.174081
	C12646	C	0.883031	0.869180	0.328456
	C12647	C	0.945315	0.932669	0.320597
	C12648	C	0.882822	0.870030	0.173185
	C12649	C	0.945543	0.931636	0.165152
	C12650	C	0.921215	0.880504	0.320921
	C12651	C	0.983452	0.943961	0.329437
	C12652	C	0.886373	0.926439	0.499053
	C12653	C	0.950464	0.879670	-0.005123
	C12654	C	0.915875	0.934013	0.493394
	C12655	C	0.980027	0.882356	0.001988
	C12656	C	0.916802	0.877154	0.244496
	C12657	C	0.979327	0.939656	0.250858
	C12658	C	0.887248	0.872895	0.250074
	C12659	C	0.949730	0.935416	0.243684
	C12660	C	0.893848	0.928475	0.497674
	C12661	C	0.957948	0.879378	-0.003286
	C12662	C	0.908372	0.933734	0.494904
	C12663	C	0.972531	0.882447	-0.000100
	C12664	C	0.909352	0.875157	0.246211
	C12665	C	0.971848	0.937542	0.248769
	C12666	C	0.894707	0.874642	0.248685
	C12667	C	0.957210	0.937081	0.245552
	C12668	C	0.897475	0.931012	0.413209
	C12669	C	0.961763	0.879521	0.412898
	C12670	C	0.904570	0.933711	-0.088117
	C12671	C	0.968896	0.880495	-0.085107
	C12672	C	0.904506	0.933468	0.411896
	C12673	C	0.968835	0.880825	0.414573
	C12674	C	0.897526	0.931263	-0.086816
	C12675	C	0.961823	0.879124	-0.086709
	C12676	C	0.905504	0.874290	0.162686
	C12677	C	0.968146	0.938464	0.163990
	C12678	C	0.898548	0.875326	0.332197
	C12679	C	0.960902	0.936122	0.330389
	C12680	C	0.898414	0.873993	0.163859
	C12681	C	0.961063	0.938153	0.162470
	C12682	C	0.905646	0.875589	0.331072
	C12683	C	0.967991	0.936429	0.332008
	N12684	N	0.875288	0.929678	0.451515
	N12685	N	0.939578	0.888490	0.443657
	N12686	N	0.926864	0.926330	0.040407
	N12687	N	0.990856	0.874400	0.052835
	N12688	N	0.926711	0.925945	0.443185
	N12689	N	0.990931	0.875261	0.455205
	N12690	N	0.875417	0.930535	0.049638
	N12691	N	0.939527	0.887397	0.041379
	N12692	N	0.927249	0.887644	0.193319
	N12693	N	0.989904	0.949508	0.204229
	N12694	N	0.876668	0.863712	0.300718
	N12695	N	0.939047	0.926663	0.290430
	N12696	N	0.876544	0.864134	0.203281
	N12697	N	0.939199	0.925989	0.192878
	N12698	N	0.927392	0.887244	0.290779
	N12699	N	0.989772	0.950190	0.301268
	H12700	H	0.883030	0.925851	0.847016
	H12701	H	0.947423	0.882041	0.841717
	H12702	H	0.919287	0.933581	0.644968
	H12703	H	0.983017	0.880125	0.655033
	H12704	H	0.918928	0.931621	0.841271
	H12705	H	0.983495	0.882819	0.850689
	H12706	H	0.883267	0.927518	0.651852
	H12707	H	0.946927	0.880399	0.646120
	H12708	H	0.919715	0.880712	0.589946
	H12709	H	0.982802	0.940671	0.599498
	H12710	H	0.884257	0.869988	0.903407
	H12711	H	0.946353	0.933891	0.896188
	H12712	H	0.883797	0.872184	0.598624
	H12713	H	0.946732	0.932517	0.591665
	H12714	H	0.920182	0.878816	0.895112
	H12715	H	0.982171	0.943735	0.903755
	H12716	H	0.895168	0.928180	1.148271
	H12717	H	0.958848	0.881561	1.148083
	H12718	H	0.907475	0.931957	0.645362
	H12719	H	0.971109	0.883622	0.650959
	H12720	H	0.907475	0.932107	1.146168
	H12721	H	0.971231	0.883885	1.150847
	H12722	H	0.895153	0.927972	0.647468
	H12723	H	0.958760	0.881434	0.648008
	H12724	H	0.908389	0.876549	0.896994
	H12725	H	0.970929	0.939513	0.597747
	H12726	H	0.895605	0.873500	0.597390
	H12727	H	0.958202	0.935013	0.896765
	H12728	H	0.895946	0.875694	0.899960
	H12729	H	0.958478	0.938347	0.595023
	H12730	H	0.908023	0.874572	0.594008
	H12731	H	0.970602	0.936054	0.899814
	Co12732	Co	0.995742	0.969602	0.628364
	Co12733	Co	0.933168	0.907489	0.616457
	Co12734	Co	0.870633	0.844432	0.877902
	Co12735	Co	0.933225	0.906889	0.866694
	C12736	C	0.881900	0.927153	0.921972
	C12737	C	0.946153	0.882921	0.916248
	C12738	C	0.920374	0.931807	0.570373
	C12739	C	0.984284	0.879271	0.580418
	C12740	C	0.920238	0.930579	0.914938
	C12741	C	0.984570	0.880532	0.925251
	C12742	C	0.881984	0.927932	0.577166
	C12743	C	0.945866	0.882301	0.571193
	C12744	C	0.920931	0.881757	0.664695
	C12745	C	0.983772	0.943015	0.674416
	C12746	C	0.883017	0.868975	0.829157
	C12747	C	0.945370	0.932366	0.821194
	C12748	C	0.882792	0.870308	0.673666
	C12749	C	0.945559	0.931639	0.666028
	C12750	C	0.921163	0.880705	0.820151
	C12751	C	0.983457	0.944532	0.829591
	C12752	C	0.886442	0.926832	0.998886
	C12753	C	0.950365	0.880043	0.494504
	C12754	C	0.915910	0.933764	0.993503
	C12755	C	0.979964	0.882517	0.501867
	C12756	C	0.916779	0.877576	0.743263
	C12757	C	0.979339	0.940077	0.750952
	C12758	C	0.887196	0.872908	0.750799
	C12759	C	0.949765	0.935173	0.744216
	C12760	C	0.893890	0.928673	0.997482
	C12761	C	0.957878	0.879609	0.496328
	C12762	C	0.908418	0.933758	0.995059
	C12763	C	0.972467	0.882539	0.499664
	C12764	C	0.909320	0.875428	0.745356
	C12765	C	0.971876	0.937837	0.748880
	C12766	C	0.894685	0.874636	0.749083
	C12767	C	0.957246	0.936926	0.745585
	C12768	C	0.897726	0.929524	1.080700
	C12769	C	0.961595	0.881090	1.081641
	C12770	C	0.904743	0.931766	0.579267
	C12771	C	0.968574	0.882541	0.582925
	C12772	C	0.904771	0.931847	1.079642
	C12773	C	0.968671	0.882590	1.083201
	C12774	C	0.897701	0.929416	0.580626
	C12775	C	0.961512	0.881162	0.581563
	C12776	C	0.905642	0.875753	0.830522
	C12777	C	0.968203	0.938432	0.664082
	C12778	C	0.898361	0.874097	0.663854
	C12779	C	0.960950	0.936062	0.830657
	C12780	C	0.898554	0.875418	0.832345
	C12781	C	0.961113	0.937904	0.662365
	C12782	C	0.905442	0.874703	0.661995
	C12783	C	0.968034	0.936614	0.832051
	N12784	N	0.875327	0.929813	0.951745
	N12785	N	0.939658	0.887976	0.943696
	N12786	N	0.926833	0.926573	0.540447
	N12787	N	0.990803	0.874504	0.552670
	N12788	N	0.926751	0.925755	0.942910
	N12789	N	0.991005	0.875356	0.955464
	N12790	N	0.875367	0.930225	0.549762
	N12791	N	0.939449	0.887880	0.541133
	N12792	N	0.927226	0.887968	0.692724
	N12793	N	0.989941	0.949863	0.704568
	N12794	N	0.876664	0.863475	0.801054
	N12795	N	0.939074	0.926550	0.791326
	N12796	N	0.876519	0.864291	0.703808
	N12797	N	0.939185	0.926196	0.693848
	N12798	N	0.927381	0.887264	0.790184
	N12799	N	0.989760	0.950719	0.801908
