data_Molecule from HDF5

_cell_length_a		188.833653
_cell_length_b		68.200848
_cell_length_c		13.993245
_cell_angle_alpha	90.018246
_cell_angle_beta	90.016184
_cell_angle_gamma	83.938931
_symmetry_space_group_name_H-M	'P 1'
_symmetry_Int_Tables_number		1

loop_
	_symmetry_equiv_pos_as_xyz
	x,y,z

loop_
	_atom_site_label
	_atom_site_type_symbol
	_atom_site_fract_x
	_atom_site_fract_y
	_atom_site_fract_z
	H0	H	0.005278	0.044545	0.347920
	H1	H	0.072586	0.014708	0.348127
	H2	H	0.042131	0.054448	0.151081
	H3	H	0.109713	0.020006	0.152270
	H4	H	0.042052	0.054012	0.347610
	H5	H	0.109766	0.019977	0.348134
	H6	H	0.005350	0.044685	0.151062
	H7	H	0.072615	0.014474	0.152036
	H8	H	0.044525	0.010405	0.097630
	H9	H	0.107111	0.072549	0.098533
	H10	H	0.007988	-0.004358	0.400791
	H11	H	0.070447	0.058394	0.401737
	H12	H	0.007985	-0.004402	0.097556
	H13	H	0.070563	0.057995	0.098085
	H14	H	0.044587	0.010193	0.400584
	H15	H	0.106956	0.072939	0.402007
	H16	H	0.017332	0.048478	0.351416
	H17	H	0.084878	0.014029	0.350411
	H18	H	0.029953	0.053217	0.148080
	H19	H	0.097570	0.018601	-0.149979
	H20	H	0.029859	0.053793	0.351469
	H21	H	0.097538	0.017931	0.350316
	H22	H	0.017442	0.048027	0.147911
	H23	H	0.084924	0.014473	-0.149711
	H24	H	0.032672	0.003986	0.100249
	H25	H	0.095049	0.067838	0.100413
	H26	H	0.019973	0.001141	0.398574
	H27	H	0.082522	0.062313	0.399451
	H28	H	0.020068	0.000016	0.099803
	H29	H	0.082336	0.064114	0.100841
	H30	H	0.032622	0.004945	0.398334
	H31	H	0.095218	0.065653	0.399026
	Co32	Co	0.119905	0.097099	0.125135
	Co33	Co	0.057430	0.034590	0.124026
	Co34	Co	-0.005123	-0.027583	0.375067
	Co35	Co	0.057387	0.034804	0.374340
	C36	C	0.003990	0.045296	0.422361
	C37	C	0.071338	0.015777	0.422373
	C38	C	0.043388	0.053415	0.076849
	C39	C	0.110969	0.018833	0.078020
	C40	C	0.043331	0.053164	0.421940
	C41	C	0.110989	0.018918	0.422657
	C42	C	0.004053	0.045367	0.076813
	C43	C	0.071404	0.015601	0.077321
	C44	C	0.045627	0.011941	0.172026
	C45	C	0.108172	0.074043	0.173036
	C46	C	0.006870	-0.005680	0.326615
	C47	C	0.069341	0.056930	0.327364
	C48	C	0.006890	-0.005809	0.171822
	C49	C	0.069412	0.056573	0.172348
	C50	C	0.045660	0.011813	0.326498
	C51	C	0.108098	0.074285	0.327538
	C52	C	0.008628	0.044744	0.499771
	C53	C	0.076028	0.013846	-0.000329
	C54	C	0.038719	0.055003	0.499610
	C55	C	0.106379	0.020676	0.000152
	C56	C	0.041362	0.008113	0.249320
	C57	C	0.103831	0.070375	0.250176
	C58	C	0.011232	-0.002399	0.249301
	C59	C	0.073708	0.060186	0.250053
	C60	C	0.016269	0.047094	0.499780
	C61	C	0.083784	0.014756	-0.000078
	C62	C	0.031023	0.053617	0.499766
	C63	C	0.098651	0.019744	-0.000142
	C64	C	0.033808	0.004724	0.249496
	C65	C	0.096288	0.066985	0.249660
	C66	C	0.018817	0.000585	0.249185
	C67	C	0.081311	0.063175	0.250105
	C68	C	0.020042	0.049202	0.417343
	C69	C	0.087563	0.015185	0.416589
	C70	C	0.027271	0.052056	0.082268
	C71	C	0.094843	0.018091	-0.083518
	C72	C	0.027188	0.052389	0.417280
	C73	C	0.094780	0.017582	0.416512
	C74	C	0.020127	0.048946	0.082058
	C75	C	0.087643	0.015656	-0.083429
	C76	C	0.029953	0.003352	0.166437
	C77	C	0.092390	0.066550	0.166622
	C78	C	0.022671	0.001858	0.332190
	C79	C	0.085218	0.063538	0.333174
	C80	C	0.022712	0.001250	0.166314
	C81	C	0.085129	0.064580	0.166756
	C82	C	0.029924	0.003845	0.332314
	C83	C	0.092483	0.065361	0.332787
	N84	N	-0.002879	0.047247	0.451009
	N85	N	0.064503	0.019424	0.450981
	N86	N	0.050256	0.049926	0.048210
	N87	N	0.117827	0.015371	0.049572
	N88	N	0.050191	0.050038	0.450453
	N89	N	0.117819	0.015559	0.451944
	N90	N	-0.002838	0.047085	0.048416
	N91	N	0.064569	0.019258	0.048174
	N92	N	0.051832	0.018104	0.200743
	N93	N	0.114333	0.080445	0.201990
	N94	N	0.000591	-0.011412	0.297782
	N95	N	0.063088	0.051052	0.298080
	N96	N	0.000592	-0.011438	0.200608
	N97	N	0.063128	0.050820	0.201139
	N98	N	0.051845	0.018113	0.297629
	N99	N	0.114284	0.080564	0.298975
	H100	H	0.005351	0.044662	0.847685
	H101	H	0.072669	0.014723	0.847404
	H102	H	0.042125	0.054869	0.651363
	H103	H	0.109610	0.019558	0.652095
	H104	H	0.042189	0.054120	0.847611
	H105	H	0.109800	0.020024	0.848491
	H106	H	0.005303	0.044957	0.651646
	H107	H	0.072564	0.014749	0.652123
	H108	H	0.044435	0.010714	0.597573
	H109	H	0.107063	0.072762	0.598374
	H110	H	0.007998	-0.004594	0.902071
	H111	H	0.070360	0.058483	0.902099
	H112	H	0.007906	-0.004068	0.597827
	H113	H	0.070527	0.058061	0.598534
	H114	H	0.044587	0.009967	0.901138
	H115	H	0.106998	0.072933	0.902059
	H116	H	0.017404	0.048232	0.850514
	H117	H	0.084825	0.016084	1.149559
	H118	H	0.029932	0.052680	0.648068
	H119	H	0.097429	0.019685	0.649130
	H120	H	0.029928	0.053587	0.850842
	H121	H	0.097491	0.020154	1.149615
	H122	H	0.017425	0.047418	0.648322
	H123	H	0.084772	0.016252	0.649391
	H124	H	0.032624	0.003874	0.600174
	H125	H	0.095047	0.067760	0.600501
	H126	H	0.019933	0.001001	0.898510
	H127	H	0.082552	0.062513	0.899430
	H128	H	0.019945	0.000183	0.600770
	H129	H	0.082376	0.064201	0.600671
	H130	H	0.032650	0.004493	0.898668
	H131	H	0.095233	0.065875	0.899064
	Co132	Co	0.119913	0.097384	0.625045
	Co133	Co	0.057362	0.035032	0.623696
	Co134	Co	-0.005128	-0.027704	0.875235
	Co135	Co	0.057422	0.034706	0.874856
	C136	C	0.004047	0.045236	0.921897
	C137	C	0.071410	0.015760	0.922012
	C138	C	0.043353	0.053599	0.577011
	C139	C	0.110917	0.018680	0.577684
	C140	C	0.043397	0.053315	0.921906
	C141	C	0.111011	0.019074	0.922874
	C142	C	0.004015	0.045491	0.577332
	C143	C	0.071320	0.015703	0.577314
	C144	C	0.045575	0.012026	0.671591
	C145	C	0.108154	0.074188	0.672775
	C146	C	0.006875	-0.005755	0.827366
	C147	C	0.069347	0.056884	0.827358
	C148	C	0.006836	-0.005565	0.672335
	C149	C	0.069389	0.056853	0.672906
	C150	C	0.045665	0.011613	0.826518
	C151	C	0.108084	0.074504	0.827559
	C152	C	0.008669	0.044745	0.999368
	C153	C	0.075968	0.013847	0.499866
	C154	C	0.038774	0.055041	0.999319
	C155	C	0.106316	0.020419	0.499839
	C156	C	0.041347	0.007954	0.749111
	C157	C	0.103850	0.070475	0.750088
	C158	C	0.011181	-0.002284	0.749836
	C159	C	0.073688	0.060310	0.750353
	C160	C	0.016322	0.047176	0.999261
	C161	C	0.083705	0.014567	0.499832
	C162	C	0.031066	0.053729	0.999398
	C163	C	0.098589	0.019357	0.499680
	C164	C	0.033791	0.004494	0.749480
	C165	C	0.096297	0.067014	0.749865
	C166	C	0.018795	0.000625	0.749657
	C167	C	0.081275	0.063235	0.750182
	C168	C	0.020087	0.049215	0.916497
	C169	C	0.087579	0.016585	1.083313
	C170	C	0.027234	0.051768	0.582286
	C171	C	0.094736	0.018570	0.583010
	C172	C	0.027232	0.052367	0.916603
	C173	C	0.094794	0.018866	1.083315
	C174	C	0.020085	0.048650	0.582332
	C175	C	0.087503	0.016393	0.583030
	C176	C	0.029935	0.003220	0.666544
	C177	C	0.092381	0.066468	0.666886
	C178	C	0.022677	0.001713	0.832613
	C179	C	0.085214	0.063680	0.833050
	C180	C	0.022683	0.001253	0.666586
	C181	C	0.085123	0.064571	0.666982
	C182	C	0.029942	0.003557	0.832578
	C183	C	0.092484	0.065474	0.832841
	N184	N	-0.002839	0.047059	0.950502
	N185	N	0.064566	0.019395	0.950944
	N186	N	0.050201	0.050259	0.547970
	N187	N	0.117777	0.015373	0.549396
	N188	N	0.050242	0.049915	0.950905
	N189	N	0.117840	0.015425	0.952133
	N190	N	-0.002867	0.047289	0.548928
	N191	N	0.064482	0.019462	0.548212
	N192	N	0.051742	0.018448	0.700456
	N193	N	0.114294	0.080726	0.701935
	N194	N	0.000592	-0.011548	0.798396
	N195	N	0.063069	0.051141	0.798458
	N196	N	0.000570	-0.011394	0.701212
	N197	N	0.063112	0.051048	0.701128
	N198	N	0.051795	0.018215	0.797590
	N199	N	0.114248	0.080915	0.798908
	H200	H	0.016166	0.246404	0.349231
	H201	H	0.067831	0.107468	0.347861
	H202	H	0.041265	0.162072	0.150745
	H203	H	0.104592	0.116328	0.152251
	H204	H	0.041101	0.161642	0.349905
	H205	H	0.104640	0.116909	0.348451
	H206	H	0.016312	0.246706	0.151307
	H207	H	0.067779	0.106764	0.151920
	H208	H	0.038462	0.106885	0.099579
	H209	H	0.100924	0.169183	0.099082
	H210	H	0.002547	0.088392	0.401496
	H211	H	0.065004	0.151414	0.400517
	H212	H	0.002446	0.088616	0.098211
	H213	H	0.065011	0.150963	0.098318
	H214	H	0.038429	0.107118	0.399889
	H215	H	0.100870	0.169555	0.400456
	H216	H	0.024223	0.218462	0.452467
	H217	H	0.079949	0.109607	0.351252
	H218	H	0.033593	0.190838	0.044438
	H219	H	0.092308	0.116244	0.149336
	H220	H	0.032869	0.189100	0.452158
	H221	H	0.092482	0.115146	0.351611
	H222	H	0.025009	0.220345	0.044840
	H223	H	0.079803	0.111015	0.149168
	H224	H	0.026488	0.102459	0.103658
	H225	H	0.088895	0.166562	0.104906
	H226	H	0.013905	0.098091	0.394669
	H227	H	0.076486	0.159213	0.394547
	H228	H	0.013920	0.097560	0.104234
	H229	H	0.076299	0.161408	0.104666
	H230	H	0.026499	0.103101	0.394828
	H231	H	0.089087	0.164277	0.394046
	Co232	Co	0.115035	0.186872	0.125418
	Co233	Co	0.052525	0.124589	0.124524
	Co234	Co	-0.010030	0.062312	0.375402
	Co235	Co	0.052528	0.124698	0.374908
	C236	C	0.015402	0.249316	0.422828
	C237	C	0.066569	0.107902	0.422453
	C238	C	0.042010	0.158974	0.076979
	C239	C	0.105868	0.115510	0.077828
	C240	C	0.041963	0.158885	0.423506
	C241	C	0.105899	0.115887	0.422611
	C242	C	0.015497	0.249620	0.077267
	C243	C	0.066510	0.107470	0.077509
	C244	C	0.039665	0.107622	0.172623
	C245	C	0.102158	0.169906	0.172741
	C246	C	0.001485	0.086871	0.327540
	C247	C	0.063952	0.149633	0.326734
	C248	C	0.001456	0.086982	0.172594
	C249	C	0.063965	0.149414	0.172404
	C250	C	0.039651	0.107672	0.326671
	C251	C	0.102102	0.170092	0.326916
	C252	C	0.018522	0.238986	0.500013
	C253	C	0.071133	0.106949	-0.000033
	C254	C	0.038883	0.169284	0.500735
	C255	C	0.101240	0.117206	0.000380
	C256	C	0.035213	0.105459	0.249626
	C257	C	0.097675	0.167900	0.249542
	C258	C	0.005538	0.091913	0.250073
	C259	C	0.068022	0.154535	0.249383
	C260	C	0.023649	0.221292	0.500218
	C261	C	0.078761	0.109400	0.000270
	C262	C	0.033707	0.186882	0.500966
	C263	C	0.093520	0.115923	0.000389
	C264	C	0.027639	0.102797	0.249682
	C265	C	0.090080	0.165361	0.249571
	C266	C	0.012868	0.097036	0.249512
	C267	C	0.075343	0.159664	0.249469
	C268	C	0.026172	0.212251	0.473462
	C269	C	0.082620	0.110962	0.417237
	C270	C	0.031449	0.196554	0.024915
	C271	C	0.089664	0.114840	0.083063
	C272	C	0.031051	0.195555	0.473553
	C273	C	0.089756	0.114098	0.417164
	C274	C	0.026589	0.213345	0.025022
	C275	C	0.082506	0.111750	0.083083
	C276	C	0.023809	0.101503	0.168312
	C277	C	0.086237	0.164835	0.168816
	C278	C	0.016642	0.099001	0.330583
	C279	C	0.079156	0.160833	0.330626
	C280	C	0.016637	0.098696	0.168352
	C281	C	0.079068	0.161986	0.168674
	C282	C	0.023815	0.101777	0.330640
	C283	C	0.086329	0.163609	0.330477
	N284	N	0.010892	0.264616	0.452017
	N285	N	0.059657	0.109666	0.450771
	N286	N	0.046490	0.143652	0.047689
	N287	N	0.112726	0.112346	0.049294
	N288	N	0.046528	0.143694	0.452304
	N289	N	0.112741	0.112508	0.451585
	N290	N	0.010926	0.264792	0.047974
	N291	N	0.059623	0.109452	0.048597
	N292	N	0.046195	0.111214	0.201360
	N293	N	0.108698	0.173365	0.201749
	N294	N	-0.004360	0.078909	0.298070
	N295	N	0.058124	0.141546	0.297729
	N296	N	-0.004361	0.078891	0.201968
	N297	N	0.058141	0.141438	0.201381
	N298	N	0.046192	0.111252	0.298117
	N299	N	0.108671	0.173444	0.298343
	H300	H	0.016160	0.246443	0.849167
	H301	H	0.067839	0.106972	0.847562
	H302	H	0.041151	0.161526	0.650896
	H303	H	0.104611	0.116579	0.652021
	H304	H	0.041033	0.161538	0.849107
	H305	H	0.104619	0.116890	0.848630
	H306	H	0.016284	0.246902	0.650389
	H307	H	0.067821	0.106509	0.652155
	H308	H	0.038304	0.107218	0.598268
	H309	H	0.100874	0.169068	0.599830
	H310	H	0.002519	0.088364	0.901806
	H311	H	0.064921	0.150882	0.902217
	H312	H	0.002319	0.089233	0.598366
	H313	H	0.064944	0.151088	0.598661
	H314	H	0.038368	0.106765	0.900720
	H315	H	0.100936	0.169357	0.901245
	H316	H	0.023792	0.217555	0.955379
	H317	H	0.079905	0.109332	0.851447
	H318	H	0.033141	0.189777	0.549048
	H319	H	0.092424	0.116371	0.647966
	H320	H	0.032354	0.187988	0.955696
	H321	H	0.092418	0.114684	0.851473
	H322	H	0.024518	0.219242	0.548459
	H323	H	0.079882	0.110886	0.648852
	H324	H	0.026464	0.102177	0.604415
	H325	H	0.088874	0.166118	0.605713
	H326	H	0.013785	0.098222	0.895630
	H327	H	0.076462	0.159123	0.896642
	H328	H	0.013875	0.097035	0.604329
	H329	H	0.076275	0.161206	0.605923
	H330	H	0.026348	0.103376	0.895762
	H331	H	0.089056	0.164099	0.896145
	Co332	Co	0.114983	0.186686	0.625086
	Co333	Co	0.052555	0.124449	0.624477
	Co334	Co	-0.009992	0.062041	0.875022
	Co335	Co	0.052458	0.124419	0.874932
	C336	C	0.015424	0.249410	0.922993
	C337	C	0.066524	0.107645	0.922280
	C338	C	0.041972	0.158817	0.577544
	C339	C	0.105869	0.115667	0.577584
	C340	C	0.041883	0.158675	0.922781
	C341	C	0.105890	0.115817	0.923093
	C342	C	0.015454	0.249510	0.577041
	C343	C	0.066562	0.107480	0.577487
	C344	C	0.039537	0.107827	0.672538
	C345	C	0.102077	0.169808	0.673718
	C346	C	0.001409	0.086806	0.827563
	C347	C	0.063927	0.149240	0.827620
	C348	C	0.001326	0.087186	0.672703
	C349	C	0.063956	0.149385	0.673084
	C350	C	0.039562	0.107563	0.826592
	C351	C	0.102090	0.169932	0.827576
	C352	C	0.018600	0.239138	1.000080
	C353	C	0.071174	0.107100	0.500062
	C354	C	0.038824	0.169297	0.999760
	C355	C	0.101260	0.117450	0.500028
	C356	C	0.035103	0.105548	0.749465
	C357	C	0.097680	0.167705	0.750652
	C358	C	0.005417	0.092044	0.750128
	C359	C	0.067965	0.154370	0.750733
	C360	C	0.023704	0.221452	0.999825
	C361	C	0.078812	0.109454	0.500056
	C362	C	0.033683	0.186936	0.999770
	C363	C	0.093532	0.116048	0.499742
	C364	C	0.027512	0.102884	0.749842
	C365	C	0.090068	0.165156	0.750911
	C366	C	0.012760	0.097153	0.749839
	C367	C	0.075318	0.159464	0.751238
	C368	C	0.025918	0.211760	0.974638
	C369	C	0.082575	0.110734	0.917482
	C370	C	0.031197	0.195968	0.527888
	C371	C	0.089719	0.114843	0.582600
	C372	C	0.030782	0.194966	0.975045
	C373	C	0.089719	0.113878	0.917519
	C374	C	0.026313	0.212674	0.527315
	C375	C	0.082578	0.111750	0.582719
	C376	C	0.023720	0.101342	0.668534
	C377	C	0.086190	0.164534	0.669870
	C378	C	0.016510	0.099119	0.831039
	C379	C	0.079133	0.160639	0.832388
	C380	C	0.016560	0.098498	0.668581
	C381	C	0.079042	0.161771	0.670001
	C382	C	0.023678	0.101938	0.831171
	C383	C	0.086290	0.163382	0.832261
	N384	N	0.010893	0.264687	0.952358
	N385	N	0.059630	0.109512	0.950841
	N386	N	0.046539	0.143633	0.547790
	N387	N	0.112715	0.112410	0.548806
	N388	N	0.046429	0.143490	0.952162
	N389	N	0.112744	0.112541	0.951674
	N390	N	0.010912	0.264772	0.547483
	N391	N	0.059654	0.109420	0.548855
	N392	N	0.046106	0.111174	0.701173
	N393	N	0.108673	0.173275	0.702170
	N394	N	-0.004455	0.078903	0.798145
	N395	N	0.058106	0.141161	0.798158
	N396	N	-0.004490	0.079063	0.702051
	N397	N	0.058118	0.141326	0.701771
	N398	N	0.046114	0.111038	0.797896
	N399	N	0.108664	0.173356	0.799030
	H400	H	0.015202	0.354317	0.348894
	H401	H	0.078832	0.309070	0.348438
	H402	H	0.052124	0.364492	0.150550
	H403	H	0.103518	0.223744	0.150733
	H404	H	0.051965	0.363144	0.346651
	H405	H	0.103717	0.223966	0.349224
	H406	H	0.015323	0.355002	0.152383
	H407	H	0.078970	0.309689	0.150288
	H408	H	0.054760	0.320246	0.096685
	H409	H	0.117315	0.382270	0.097545
	H410	H	0.019062	0.300932	0.400022
	H411	H	0.081473	0.363527	0.399893
	H412	H	0.018891	0.301909	0.099096
	H413	H	0.081425	0.364356	0.098797
	H414	H	0.055025	0.319041	0.399893
	H415	H	0.117489	0.382011	0.399979
	H416	H	0.027231	0.357163	0.352143
	H417	H	0.087171	0.281648	0.372637
	H418	H	0.039866	0.362577	-0.149447
	H419	H	0.095986	0.252748	-0.059931
	H420	H	0.039768	0.362145	0.351309
	H421	H	0.095727	0.252121	0.373392
	H422	H	0.027347	0.357157	-0.149008
	H423	H	0.087395	0.282233	-0.060346
	H424	H	0.043304	0.312822	0.394056
	H425	H	0.106005	0.372666	0.104857
	H426	H	0.031043	0.303594	0.103679
	H427	H	0.093311	0.368843	0.394358
	H428	H	0.030730	0.307598	0.394286
	H429	H	0.093408	0.367491	0.105577
	H430	H	0.043641	0.308783	0.104138
	H431	H	0.105884	0.373899	0.394410
	Co432	Co	0.129877	0.408573	0.122654
	Co433	Co	0.067361	0.346443	0.122597
	Co434	Co	0.004863	0.283653	0.374841
	Co435	Co	0.067353	0.346010	0.373686
	C436	C	0.013962	0.355533	0.423494
	C437	C	0.078002	0.311891	0.421888
	C438	C	0.053390	0.363605	0.076005
	C439	C	0.104408	0.221036	0.077180
	C440	C	0.053302	0.362751	0.420829
	C441	C	0.104470	0.221069	0.423103
	C442	C	0.014070	0.355876	0.077843
	C443	C	0.078026	0.312154	0.076153
	C444	C	0.055843	0.321749	0.171022
	C445	C	0.118403	0.383965	0.171645
	C446	C	0.017798	0.300395	0.326629
	C447	C	0.080250	0.363071	0.326191
	C448	C	0.017702	0.300869	0.172527
	C449	C	0.080238	0.363482	0.172100
	C450	C	0.055989	0.321179	0.325710
	C451	C	0.118501	0.383761	0.325827
	C452	C	0.018601	0.353988	0.500868
	C453	C	0.081016	0.301403	-0.000994
	C454	C	0.048710	0.363700	0.498858
	C455	C	0.101355	0.231535	-0.000006
	C456	C	0.051849	0.316478	0.248572
	C457	C	0.114374	0.378934	0.249065
	C458	C	0.022183	0.302925	0.249368
	C459	C	0.084680	0.365470	0.249321
	C460	C	0.026285	0.355140	0.500237
	C461	C	0.086170	0.283734	-0.000764
	C462	C	0.041058	0.361390	0.499621
	C463	C	0.096211	0.249211	-0.000504
	C464	C	0.044511	0.311392	0.249071
	C465	C	0.107033	0.373904	0.249484
	C466	C	0.029777	0.305537	0.248993
	C467	C	0.092259	0.368202	0.249613
	C468	C	0.030001	0.357520	0.417505
	C469	C	0.088913	0.275108	0.428473
	C470	C	0.037234	0.360816	-0.083628
	C471	C	0.093909	0.258631	-0.033838
	C472	C	0.037167	0.360459	0.417145
	C473	C	0.093746	0.258273	0.428536
	C474	C	0.030098	0.357638	-0.083309
	C475	C	0.089042	0.275394	-0.034098
	C476	C	0.040670	0.310717	0.330119
	C477	C	0.103280	0.371872	0.168983
	C478	C	0.033679	0.305634	0.168040
	C479	C	0.096054	0.369705	0.330380
	C480	C	0.033514	0.307790	0.330082
	C481	C	0.096113	0.369034	0.169010
	C482	C	0.040833	0.308581	0.167996
	C483	C	0.103221	0.372541	0.330310
	N484	N	0.007140	0.359414	0.452403
	N485	N	0.073461	0.327163	0.450962
	N486	N	0.060262	0.361536	0.046972
	N487	N	0.108968	0.205824	0.047988
	N488	N	0.060193	0.360929	0.448866
	N489	N	0.108961	0.205754	0.452510
	N490	N	0.007208	0.359416	0.049495
	N491	N	0.073478	0.327345	0.046480
	N492	N	0.061728	0.329570	0.199985
	N493	N	0.124291	0.391804	0.200218
	N494	N	0.011246	0.296888	0.298254
	N495	N	0.073694	0.359605	0.297092
	N496	N	0.011178	0.297137	0.201627
	N497	N	0.073682	0.359847	0.200597
	N498	N	0.061821	0.329192	0.296099
	N499	N	0.124320	0.391747	0.296346
	H500	H	0.015216	0.354470	0.848657
	H501	H	0.078570	0.308403	0.847797
	H502	H	0.052100	0.364374	0.650482
	H503	H	0.103485	0.223698	0.651022
	H504	H	0.052004	0.363582	0.846033
	H505	H	0.103674	0.223934	0.849456
	H506	H	0.015220	0.355334	0.652855
	H507	H	0.078758	0.309070	0.649343
	H508	H	0.054679	0.320065	0.596366
	H509	H	0.117327	0.382545	0.596178
	H510	H	0.019005	0.301199	0.899667
	H511	H	0.081461	0.363490	0.899102
	H512	H	0.018860	0.301284	0.598967
	H513	H	0.081366	0.364369	0.597766
	H514	H	0.054932	0.319327	0.899335
	H515	H	0.117373	0.382072	0.899248
	H516	H	0.027675	0.353685	1.147380
	H517	H	0.086427	0.280251	1.057847
	H518	H	0.040152	0.358546	0.647786
	H519	H	0.095185	0.251096	0.626696
	H520	H	0.040207	0.358889	1.146774
	H521	H	0.095034	0.250780	1.058790
	H522	H	0.027603	0.353546	0.648020
	H523	H	0.086617	0.280710	0.625442
	H524	H	0.043620	0.308072	0.603342
	H525	H	0.105949	0.372781	0.602775
	H526	H	0.030652	0.308042	0.894098
	H527	H	0.093249	0.368967	0.893939
	H528	H	0.031008	0.303093	0.603810
	H529	H	0.093397	0.367495	0.602984
	H530	H	0.043229	0.313090	0.893738
	H531	H	0.105847	0.373906	0.893328
	Co532	Co	0.129850	0.408656	0.622755
	Co533	Co	0.067330	0.346284	0.622709
	Co534	Co	0.004863	0.283607	0.875012
	Co535	Co	0.067309	0.346017	0.873600
	C536	C	0.014010	0.355528	0.922801
	C537	C	0.077842	0.311528	0.921617
	C538	C	0.053378	0.363358	0.575943
	C539	C	0.104351	0.220939	0.577285
	C540	C	0.053343	0.363172	0.920843
	C541	C	0.104475	0.221116	0.923092
	C542	C	0.013980	0.356029	0.578435
	C543	C	0.077952	0.311916	0.575773
	C544	C	0.055795	0.321633	0.670279
	C545	C	0.118374	0.384079	0.670503
	C546	C	0.017715	0.300629	0.826312
	C547	C	0.080233	0.363038	0.825505
	C548	C	0.017654	0.300662	0.672577
	C549	C	0.080188	0.363481	0.671852
	C550	C	0.055912	0.321213	0.825254
	C551	C	0.118378	0.383917	0.825083
	C552	C	0.018658	0.353960	0.999996
	C553	C	0.081090	0.301474	0.498940
	C554	C	0.048751	0.364076	0.998704
	C555	C	0.101305	0.231410	0.500048
	C556	C	0.051804	0.316288	0.747804
	C557	C	0.114291	0.379112	0.747710
	C558	C	0.022133	0.302958	0.749296
	C559	C	0.084630	0.365565	0.748701
	C560	C	0.026362	0.355139	0.999368
	C561	C	0.086225	0.283767	0.499227
	C562	C	0.041104	0.361727	0.998923
	C563	C	0.096168	0.249070	0.499683
	C564	C	0.044477	0.311267	0.748292
	C565	C	0.106932	0.374023	0.747993
	C566	C	0.029719	0.305575	0.748961
	C567	C	0.092210	0.368265	0.748489
	C568	C	0.030276	0.355620	1.081632
	C569	C	0.088505	0.274348	1.032278
	C570	C	0.037380	0.358519	0.582270
	C571	C	0.093452	0.257709	0.570809
	C572	C	0.037420	0.358763	1.081374
	C573	C	0.093363	0.257564	1.032410
	C574	C	0.030206	0.355580	0.582541
	C575	C	0.088629	0.274563	0.570135
	C576	C	0.040813	0.308145	0.667568
	C577	C	0.103212	0.371935	0.666842
	C578	C	0.033433	0.308119	0.829910
	C579	C	0.095994	0.369777	0.829703
	C580	C	0.033628	0.305387	0.667815
	C581	C	0.096059	0.369116	0.667231
	C582	C	0.040612	0.310895	0.829499
	C583	C	0.103149	0.372576	0.829501
	N584	N	0.007184	0.359193	0.952131
	N585	N	0.073349	0.326924	0.950677
	N586	N	0.060252	0.361305	0.546879
	N587	N	0.108893	0.205660	0.548232
	N588	N	0.060217	0.361234	0.948950
	N589	N	0.109000	0.205867	0.952558
	N590	N	0.007139	0.359620	0.549854
	N591	N	0.073436	0.327199	0.546337
	N592	N	0.061637	0.329635	0.699497
	N593	N	0.124240	0.391900	0.699708
	N594	N	0.011151	0.297210	0.798026
	N595	N	0.073678	0.359433	0.796907
	N596	N	0.011121	0.297274	0.701359
	N597	N	0.073664	0.359645	0.700335
	N598	N	0.061719	0.329341	0.795896
	N599	N	0.124238	0.391819	0.796095
	H600	H	0.010416	0.447913	0.349143
	H601	H	0.077723	0.416896	0.347470
	H602	H	0.047337	0.458481	0.151163
	H603	H	0.114557	0.426508	0.150397
	H604	H	0.047261	0.456679	0.347019
	H605	H	0.114549	0.426207	0.345853
	H606	H	0.010530	0.449230	0.153978
	H607	H	0.077751	0.418096	0.151863
	H608	H	0.049379	0.414147	0.097183
	H609	H	0.112003	0.476232	0.097083
	H610	H	0.013177	0.398155	0.402088
	H611	H	0.075648	0.460457	0.401860
	H612	H	0.012924	0.399092	0.099076
	H613	H	0.075371	0.461950	0.098349
	H614	H	0.049667	0.412991	0.400200
	H615	H	0.112063	0.476155	0.400814
	H616	H	0.022370	0.453321	0.351772
	H617	H	0.090033	0.417498	0.646886
	H618	H	0.035311	0.454961	0.149007
	H619	H	0.102570	0.422609	0.147385
	H620	H	0.034892	0.458353	0.351571
	H621	H	0.102568	0.422587	0.646356
	H622	H	0.022704	0.450112	0.149841
	H623	H	0.090045	0.417568	0.147512
	H624	H	0.037528	0.409420	0.398191
	H625	H	0.100099	0.471134	0.397766
	H626	H	0.025044	0.402461	0.101195
	H627	H	0.087462	0.466102	0.101712
	H628	H	0.024873	0.405661	0.398669
	H629	H	0.087419	0.467418	0.398416
	H630	H	0.037747	0.406235	0.101087
	H631	H	0.100158	0.469893	0.101370
	Co632	Co	0.124998	0.499984	0.123359
	Co633	Co	0.062470	0.437749	0.123581
	Co634	Co	0.000025	0.374828	0.376450
	Co635	Co	0.062525	0.437216	0.374896
	C636	C	0.009129	0.449024	0.423867
	C637	C	0.076474	0.418225	0.422057
	C638	C	0.048606	0.456970	0.076581
	C639	C	0.115846	0.425666	0.075674
	C640	C	0.048519	0.456126	0.421544
	C641	C	0.115845	0.425574	0.420168
	C642	C	0.009198	0.449550	0.079708
	C643	C	0.076474	0.418610	0.076986
	C644	C	0.050580	0.415311	0.171390
	C645	C	0.113092	0.477662	0.171346
	C646	C	0.011993	0.397091	0.327905
	C647	C	0.074472	0.459422	0.327347
	C648	C	0.011876	0.397554	0.173291
	C649	C	0.074341	0.460185	0.172746
	C650	C	0.050696	0.414707	0.326099
	C651	C	0.113125	0.477598	0.326020
	C652	C	0.013791	0.448582	0.501370
	C653	C	0.081076	0.416479	-0.000747
	C654	C	0.043911	0.458258	0.499583
	C655	C	0.111213	0.426439	-0.001756
	C656	C	0.046333	0.411334	0.248769
	C657	C	0.108819	0.474038	0.248882
	C658	C	0.016232	0.400959	0.250161
	C659	C	0.078696	0.463388	0.250076
	C660	C	0.021444	0.450866	0.500534
	C661	C	0.088787	0.417780	-0.001074
	C662	C	0.036198	0.457099	0.500075
	C663	C	0.103553	0.424153	-0.001375
	C664	C	0.038793	0.407997	0.249427
	C665	C	0.101242	0.470786	0.249236
	C666	C	0.023807	0.404060	0.249720
	C667	C	0.086273	0.466621	0.249971
	C668	C	0.025117	0.453602	0.417744
	C669	C	0.092692	0.418965	0.581305
	C670	C	0.032493	0.454707	0.083515
	C671	C	0.099822	0.421953	0.081384
	C672	C	0.032277	0.456554	0.417435
	C673	C	0.099848	0.421923	0.580959
	C674	C	0.025318	0.451813	0.083901
	C675	C	0.092669	0.418933	0.081447
	C676	C	0.034886	0.407784	0.332259
	C677	C	0.097372	0.470016	0.332130
	C678	C	0.027721	0.404165	0.166849
	C679	C	0.090161	0.467315	0.167292
	C680	C	0.027622	0.405884	0.332415
	C681	C	0.090130	0.467945	0.332422
	C682	C	0.034980	0.406130	0.166929
	C683	C	0.097398	0.469386	0.166915
	N684	N	0.002255	0.451147	0.453150
	N685	N	0.069634	0.421851	0.451233
	N686	N	0.055416	0.453222	0.047355
	N687	N	0.122727	0.423572	0.047052
	N688	N	0.055378	0.452662	0.450309
	N689	N	0.122738	0.423528	0.448815
	N690	N	0.002324	0.451505	0.051314
	N691	N	0.069603	0.422141	0.048323
	N692	N	0.056809	0.421347	0.200011
	N693	N	0.119352	0.483606	0.200264
	N694	N	0.005768	0.391029	0.299493
	N695	N	0.068199	0.453568	0.298670
	N696	N	0.005709	0.391232	0.202579
	N697	N	0.068120	0.453986	0.201454
	N698	N	0.056887	0.420950	0.297211
	N699	N	0.119359	0.483613	0.297130
	H700	H	0.010404	0.447875	0.850234
	H701	H	0.077640	0.416651	0.847738
	H702	H	0.047397	0.458345	0.651251
	H703	H	0.114563	0.426734	0.649752
	H704	H	0.047162	0.456319	0.847308
	H705	H	0.114492	0.426377	0.845982
	H706	H	0.010580	0.449207	0.653488
	H707	H	0.077773	0.417990	0.651228
	H708	H	0.049334	0.414568	0.596434
	H709	H	0.111947	0.476120	0.596731
	H710	H	0.013168	0.398036	0.903080
	H711	H	0.075658	0.460261	0.901647
	H712	H	0.012784	0.399579	0.599233
	H713	H	0.075358	0.462095	0.598186
	H714	H	0.049661	0.412610	0.900751
	H715	H	0.112040	0.476322	0.900151
	H716	H	0.022323	0.453731	0.852845
	H717	H	0.089808	0.418938	0.850749
	H718	H	0.035281	0.455065	0.648051
	H719	H	0.102376	0.423673	0.350435
	H720	H	0.034856	0.458565	0.851871
	H721	H	0.102376	0.423922	0.850146
	H722	H	0.022698	0.450143	0.648689
	H723	H	0.089865	0.418711	0.351312
	H724	H	0.037640	0.406215	0.600587
	H725	H	0.100161	0.469457	0.600889
	H726	H	0.024825	0.406391	0.899154
	H727	H	0.087376	0.467858	0.898645
	H728	H	0.025004	0.402499	0.601318
	H729	H	0.087500	0.465919	0.600786
	H730	H	0.037505	0.409957	0.897574
	H731	H	0.100070	0.471290	0.898360
	Co732	Co	0.125005	0.499964	0.622744
	Co733	Co	0.062487	0.437781	0.623767
	Co734	Co	0.000059	0.374595	0.876541
	Co735	Co	0.062511	0.437032	0.874620
	C736	C	0.009152	0.448821	0.924543
	C737	C	0.076431	0.417899	0.922076
	C738	C	0.048578	0.456901	0.576820
	C739	C	0.115866	0.425778	0.575329
	C740	C	0.048511	0.455978	0.921561
	C741	C	0.115826	0.425637	0.920789
	C742	C	0.009187	0.449589	0.579136
	C743	C	0.076505	0.418713	0.577184
	C744	C	0.050536	0.415459	0.671112
	C745	C	0.113100	0.477467	0.671174
	C746	C	0.011964	0.397103	0.828619
	C747	C	0.074477	0.459343	0.827062
	C748	C	0.011819	0.397710	0.674027
	C749	C	0.074326	0.460351	0.672592
	C750	C	0.050684	0.414576	0.826022
	C751	C	0.113118	0.477665	0.826037
	C752	C	0.013811	0.448513	1.002089
	C753	C	0.081102	0.416699	0.499512
	C754	C	0.043922	0.458170	0.999628
	C755	C	0.111235	0.426455	0.497924
	C756	C	0.046315	0.411387	0.748696
	C757	C	0.108814	0.473848	0.748955
	C758	C	0.016174	0.401094	0.751118
	C759	C	0.078709	0.463521	0.749961
	C760	C	0.021429	0.450919	1.001537
	C761	C	0.088825	0.417830	0.499159
	C762	C	0.036204	0.457085	1.000574
	C763	C	0.103580	0.424143	0.498494
	C764	C	0.038733	0.408221	0.749311
	C765	C	0.101257	0.470575	0.749750
	C766	C	0.023716	0.404272	0.750436
	C767	C	0.086269	0.466682	0.749828
	C768	C	0.025096	0.453759	0.918644
	C769	C	0.092558	0.419629	0.916435
	C770	C	0.032482	0.454727	0.582567
	C771	C	0.099752	0.422532	0.416295
	C772	C	0.032270	0.456710	0.917943
	C773	C	0.099708	0.422706	0.916205
	C774	C	0.025317	0.451760	0.582769
	C775	C	0.092605	0.419503	0.416576
	C776	C	0.034895	0.406228	0.666986
	C777	C	0.097425	0.469081	0.666933
	C778	C	0.027562	0.406257	0.832777
	C779	C	0.090120	0.468122	0.832570
	C780	C	0.027642	0.404233	0.667481
	C781	C	0.090163	0.467153	0.666958
	C782	C	0.034815	0.408249	0.832088
	C783	C	0.097373	0.470058	0.832554
	N784	N	0.002274	0.451055	0.953457
	N785	N	0.069584	0.421687	0.951139
	N786	N	0.055408	0.453156	0.547634
	N787	N	0.122747	0.423645	0.546669
	N788	N	0.055367	0.452635	0.950059
	N789	N	0.122701	0.423561	0.949281
	N790	N	0.002304	0.451533	0.551161
	N791	N	0.069656	0.422221	0.548410
	N792	N	0.056771	0.421427	0.700060
	N793	N	0.119295	0.483733	0.699738
	N794	N	0.005730	0.391072	0.800331
	N795	N	0.068265	0.453314	0.798237
	N796	N	0.005649	0.391397	0.702958
	N797	N	0.068146	0.453963	0.701296
	N798	N	0.056877	0.420825	0.797055
	N799	N	0.119324	0.483719	0.796785
	H800	H	0.021168	0.650634	0.348277
	H801	H	0.072858	0.510860	0.347947
	H802	H	0.046367	0.566525	0.148840
	H803	H	0.109757	0.520269	0.150899
	H804	H	0.046090	0.565445	0.348929
	H805	H	0.109730	0.519471	0.347360
	H806	H	0.021532	0.651784	0.148700
	H807	H	0.072981	0.511506	0.152323
	H808	H	0.043424	0.511796	0.099577
	H809	H	0.105939	0.573985	0.098215
	H810	H	0.007767	0.492466	0.403657
	H811	H	0.070113	0.555026	0.402341
	H812	H	0.007544	0.493276	0.100734
	H813	H	0.069956	0.555711	0.099157
	H814	H	0.043597	0.510460	0.400236
	H815	H	0.106093	0.573013	0.400026
	H816	H	0.029230	0.622382	0.427321
	H817	H	0.084913	0.514820	0.351052
	H818	H	0.038612	0.595041	0.106693
	H819	H	0.097606	0.518365	0.148108
	H820	H	0.037859	0.592908	0.427597
	H821	H	0.097418	0.520143	0.350370
	H822	H	0.030016	0.624664	0.105755
	H823	H	0.085101	0.512992	0.147767
	H824	H	0.031813	0.504630	0.105805
	H825	H	0.094164	0.568254	0.104687
	H826	H	0.018910	0.504024	0.395637
	H827	H	0.081423	0.565760	0.394995
	H828	H	0.019179	0.499663	0.106365
	H829	H	0.081608	0.563105	0.105074
	H830	H	0.031496	0.509176	0.394643
	H831	H	0.094015	0.570753	0.394245
	Co832	Co	0.120151	0.591184	0.123500
	Co833	Co	0.057634	0.528974	0.125062
	Co834	Co	-0.004803	0.466239	0.377414
	Co835	Co	0.057612	0.528717	0.375649
	C836	C	0.020444	0.653515	0.421441
	C837	C	0.071631	0.511701	0.422514
	C838	C	0.047122	0.563387	0.075744
	C839	C	0.111013	0.519108	0.076790
	C840	C	0.046971	0.562821	0.422682
	C841	C	0.111038	0.518699	0.421536
	C842	C	0.020642	0.654196	0.075462
	C843	C	0.071652	0.511945	0.078037
	C844	C	0.044707	0.512123	0.172856
	C845	C	0.107168	0.574432	0.172031
	C846	C	0.006655	0.490908	0.329304
	C847	C	0.069073	0.553518	0.328009
	C848	C	0.006526	0.491297	0.174719
	C849	C	0.069016	0.553807	0.173556
	C850	C	0.044821	0.511483	0.326869
	C851	C	0.107250	0.573970	0.326255
	C852	C	0.023616	0.643211	0.498589
	C853	C	0.076268	0.510979	0.000083
	C854	C	0.043948	0.573388	0.499774
	C855	C	0.106334	0.520843	-0.000653
	C856	C	0.040307	0.509492	0.249987
	C857	C	0.102801	0.571988	0.249500
	C858	C	0.010677	0.496111	0.251711
	C859	C	0.073091	0.558736	0.250861
	C860	C	0.028795	0.625623	0.498397
	C861	C	0.083883	0.513347	-0.000268
	C862	C	0.038811	0.591093	0.499463
	C863	C	0.098628	0.519737	-0.000173
	C864	C	0.032733	0.506859	0.250370
	C865	C	0.095204	0.569468	0.249559
	C866	C	0.018010	0.501150	0.251158
	C867	C	0.080429	0.563895	0.250395
	C868	C	0.031233	0.616372	0.458706
	C869	C	0.087656	0.515524	0.416796
	C870	C	0.036538	0.600829	0.059162
	C871	C	0.094886	0.517647	0.082292
	C872	C	0.036097	0.599617	0.459107
	C873	C	0.094816	0.518581	0.416586
	C874	C	0.031668	0.617580	0.059165
	C875	C	0.087724	0.514615	0.082209
	C876	C	0.029017	0.504515	0.169584
	C877	C	0.091427	0.567633	0.168618
	C878	C	0.021689	0.504085	0.331580
	C879	C	0.084163	0.566267	0.330951
	C880	C	0.021840	0.501645	0.170116
	C881	C	0.084258	0.564890	0.169243
	C882	C	0.028868	0.506952	0.331143
	C883	C	0.091328	0.569005	0.330527
	N884	N	0.015976	0.668898	0.450971
	N885	N	0.064753	0.513794	0.451991
	N886	N	0.051653	0.548042	0.047256
	N887	N	0.117836	0.515457	0.047555
	N888	N	0.051529	0.547635	0.452205
	N889	N	0.117875	0.515294	0.449799
	N890	N	0.016080	0.669358	0.045832
	N891	N	0.064773	0.513819	0.049743
	N892	N	0.051257	0.515572	0.201463
	N893	N	0.113737	0.577859	0.200548
	N894	N	0.000795	0.483021	0.300382
	N895	N	0.063221	0.545550	0.298927
	N896	N	0.000710	0.483240	0.204148
	N897	N	0.063181	0.545749	0.202659
	N898	N	0.051329	0.515254	0.297821
	N899	N	0.113787	0.577548	0.297535
	H900	H	0.021093	0.650594	0.847720
	H901	H	0.072903	0.510150	0.848508
	H902	H	0.046323	0.566179	0.650546
	H903	H	0.109826	0.520528	0.650649
	H904	H	0.046044	0.565443	0.848708
	H905	H	0.109635	0.519882	0.847363
	H906	H	0.021498	0.651313	0.649962
	H907	H	0.073033	0.511271	0.652155
	H908	H	0.043443	0.511817	0.599320
	H909	H	0.105882	0.574078	0.599264
	H910	H	0.007718	0.492097	0.902417
	H911	H	0.070247	0.554434	0.901949
	H912	H	0.007450	0.493063	0.599718
	H913	H	0.069942	0.555895	0.600107
	H914	H	0.043524	0.510650	0.900437
	H915	H	0.106122	0.573342	0.900274
	H916	H	0.028929	0.622142	0.891209
	H917	H	0.084872	0.515067	0.851639
	H918	H	0.038380	0.594430	0.570742
	H919	H	0.097632	0.518215	0.648260
	H920	H	0.037494	0.592532	0.890852
	H921	H	0.097378	0.520556	0.851979
	H922	H	0.029795	0.623939	0.569775
	H923	H	0.085099	0.513150	0.648069
	H924	H	0.031441	0.508996	0.895188
	H925	H	0.094196	0.568229	0.605280
	H926	H	0.019197	0.499550	0.605380
	H927	H	0.081405	0.565399	0.895233
	H928	H	0.018867	0.503805	0.895532
	H929	H	0.081646	0.563076	0.605113
	H930	H	0.031758	0.504818	0.605066
	H931	H	0.093949	0.570767	0.895488
	Co932	Co	0.120124	0.591327	0.623009
	Co933	Co	0.057659	0.528898	0.625531
	Co934	Co	-0.004826	0.466025	0.877218
	Co935	Co	0.057640	0.528580	0.875850
	C936	C	0.020434	0.653589	0.921395
	C937	C	0.071603	0.511403	0.922788
	C938	C	0.047089	0.563155	0.576962
	C939	C	0.111079	0.519079	0.576273
	C940	C	0.046969	0.562844	0.922224
	C941	C	0.110946	0.518963	0.921486
	C942	C	0.020609	0.653862	0.575696
	C943	C	0.071697	0.511882	0.577838
	C944	C	0.044678	0.512129	0.672966
	C945	C	0.107165	0.574587	0.672600
	C946	C	0.006643	0.490779	0.828506
	C947	C	0.069137	0.553077	0.828190
	C948	C	0.006505	0.491222	0.674017
	C949	C	0.068973	0.553838	0.673640
	C950	C	0.044724	0.511612	0.826899
	C951	C	0.107296	0.574225	0.826640
	C952	C	0.023641	0.643435	0.998599
	C953	C	0.076293	0.511019	0.499848
	C954	C	0.043959	0.573562	0.998728
	C955	C	0.106414	0.520640	0.499140
	C956	C	0.040304	0.509625	0.750020
	C957	C	0.102761	0.572318	0.750155
	C958	C	0.010617	0.495902	0.751145
	C959	C	0.073130	0.558417	0.750791
	C960	C	0.028798	0.625778	0.998726
	C961	C	0.083929	0.513271	0.499504
	C962	C	0.038811	0.591275	0.998555
	C963	C	0.098694	0.519547	0.499354
	C964	C	0.032710	0.506889	0.750143
	C965	C	0.095196	0.569589	0.750526
	C966	C	0.017974	0.500982	0.750436
	C967	C	0.080444	0.563599	0.750288
	C968	C	0.031067	0.616241	0.938436
	C969	C	0.087592	0.515810	0.917419
	C970	C	0.036409	0.600476	0.538881
	C971	C	0.094923	0.517565	0.582220
	C972	C	0.035926	0.599477	0.938427
	C973	C	0.094761	0.518821	0.917386
	C974	C	0.031546	0.617232	0.538398
	C975	C	0.087752	0.514605	0.582197
	C976	C	0.028801	0.506803	0.831214
	C977	C	0.091450	0.567712	0.669478
	C978	C	0.021835	0.501629	0.669503
	C979	C	0.084162	0.566017	0.831285
	C980	C	0.021649	0.503962	0.831495
	C981	C	0.084284	0.564758	0.669388
	C982	C	0.028977	0.504507	0.669069
	C983	C	0.091326	0.568966	0.831285
	N984	N	0.015948	0.668950	0.950520
	N985	N	0.064733	0.513462	0.951681
	N986	N	0.051611	0.547847	0.547926
	N987	N	0.117901	0.515482	0.547405
	N988	N	0.051552	0.547708	0.951727
	N989	N	0.117795	0.515419	0.950216
	N990	N	0.016053	0.669057	0.546426
	N991	N	0.064793	0.513876	0.549530
	N992	N	0.051244	0.515610	0.701718
	N993	N	0.113734	0.578002	0.700462
	N994	N	0.000757	0.482911	0.799941
	N995	N	0.063270	0.545296	0.799002
	N996	N	0.000658	0.483223	0.703610
	N997	N	0.063155	0.545758	0.702735
	N998	N	0.051268	0.515283	0.798422
	N999	N	0.113818	0.577785	0.797058
	H1000	H	0.020378	0.757690	0.346967
	H1001	H	0.083887	0.713529	0.347239
	H1002	H	0.057206	0.768201	0.150729
	H1003	H	0.108805	0.628611	0.148944
	H1004	H	0.057154	0.767918	0.345455
	H1005	H	0.108568	0.628129	0.347888
	H1006	H	0.020425	0.758202	0.150816
	H1007	H	0.083783	0.713225	0.148878
	H1008	H	0.059997	0.724077	0.098068
	H1009	H	0.122591	0.785978	0.098837
	H1010	H	0.024219	0.705072	0.399369
	H1011	H	0.086524	0.768477	0.399497
	H1012	H	0.024146	0.706470	0.098322
	H1013	H	0.086632	0.767912	0.097602
	H1014	H	0.060151	0.723669	0.401223
	H1015	H	0.122344	0.786747	0.401794
	H1016	H	0.032522	0.760194	0.349966
	H1017	H	0.091556	0.684825	0.546351
	H1018	H	0.045209	0.763848	0.147415
	H1019	H	0.100616	0.656001	-0.069200
	H1020	H	0.045050	0.765481	0.350143
	H1021	H	0.100132	0.655240	0.545917
	H1022	H	0.032655	0.758487	0.147193
	H1023	H	0.092026	0.685603	-0.069356
	H1024	H	0.048571	0.715500	0.395037
	H1025	H	0.111042	0.778232	0.103884
	H1026	H	0.036168	0.708756	0.104603
	H1027	H	0.098542	0.771503	0.394211
	H1028	H	0.035979	0.710486	0.394243
	H1029	H	0.098472	0.773161	0.103994
	H1030	H	0.048781	0.713929	0.105163
	H1031	H	0.111173	0.776362	0.395082
	Co1032	Co	0.134958	0.812980	0.125821
	Co1033	Co	0.072489	0.750439	0.123293
	Co1034	Co	0.010010	0.688088	0.373917
	Co1035	Co	0.072488	0.750636	0.373639
	C1036	C	0.019152	0.758878	0.421545
	C1037	C	0.083083	0.716315	0.420938
	C1038	C	0.058478	0.767510	0.075977
	C1039	C	0.109609	0.625553	0.075499
	C1040	C	0.058441	0.767471	0.420547
	C1041	C	0.109452	0.625447	0.421595
	C1042	C	0.019140	0.759210	0.076068
	C1043	C	0.083035	0.716088	0.075300
	C1044	C	0.061042	0.725744	0.172126
	C1045	C	0.123619	0.787924	0.172963
	C1046	C	0.022980	0.704639	0.325669
	C1047	C	0.085355	0.767610	0.325559
	C1048	C	0.022925	0.705337	0.171646
	C1049	C	0.085408	0.767322	0.171620
	C1050	C	0.061115	0.725638	0.326707
	C1051	C	0.123509	0.788315	0.327839
	C1052	C	0.023782	0.757614	0.498978
	C1053	C	0.086144	0.705698	-0.001812
	C1054	C	0.053839	0.768180	0.498297
	C1055	C	0.106467	0.635876	-0.001694
	C1056	C	0.057034	0.720635	0.249697
	C1057	C	0.119492	0.783071	0.250280
	C1058	C	0.027368	0.707258	0.248909
	C1059	C	0.089851	0.769655	0.249000
	C1060	C	0.031488	0.759080	0.498754
	C1061	C	0.091280	0.688025	-0.002025
	C1062	C	0.046201	0.765769	0.498561
	C1063	C	0.101302	0.653505	-0.001944
	C1064	C	0.049690	0.715475	0.250005
	C1065	C	0.112152	0.777957	0.249889
	C1066	C	0.034962	0.709795	0.249196
	C1067	C	0.097422	0.772294	0.249336
	C1068	C	0.035242	0.761069	0.415828
	C1069	C	0.093638	0.678853	0.525092
	C1070	C	0.042464	0.763217	0.081518
	C1071	C	0.098747	0.662379	-0.039696
	C1072	C	0.042370	0.764266	0.415857
	C1073	C	0.098498	0.662076	0.525159
	C1074	C	0.035317	0.760130	0.081411
	C1075	C	0.093870	0.679142	-0.039586
	C1076	C	0.045880	0.714157	0.330961
	C1077	C	0.108370	0.776691	0.168356
	C1078	C	0.038831	0.710395	0.168480
	C1079	C	0.101249	0.773018	0.330438
	C1080	C	0.038722	0.711333	0.330374
	C1081	C	0.101198	0.773896	0.168176
	C1082	C	0.046000	0.713177	0.168876
	C1083	C	0.108425	0.775831	0.330913
	N1084	N	0.012295	0.762236	0.450326
	N1085	N	0.078552	0.731553	0.450278
	N1086	N	0.065371	0.765423	0.047228
	N1087	N	0.114133	0.610262	0.046318
	N1088	N	0.065342	0.765635	0.449177
	N1089	N	0.114006	0.610214	0.450959
	N1090	N	0.012296	0.762470	0.047171
	N1091	N	0.078545	0.731450	0.045955
	N1092	N	0.066889	0.733748	0.200956
	N1093	N	0.129431	0.796034	0.202815
	N1094	N	0.016405	0.701328	0.296815
	N1095	N	0.078826	0.764027	0.296690
	N1096	N	0.016360	0.701750	0.199967
	N1097	N	0.078853	0.763849	0.200081
	N1098	N	0.066932	0.733676	0.297133
	N1099	N	0.129347	0.796324	0.299001
	H1100	H	0.020419	0.758272	0.846284
	H1101	H	0.083931	0.713482	0.847619
	H1102	H	0.057173	0.768544	0.649900
	H1103	H	0.108872	0.628780	0.649254
	H1104	H	0.057172	0.767896	0.846875
	H1105	H	0.108682	0.628344	0.848047
	H1106	H	0.020451	0.758666	0.650307
	H1107	H	0.083926	0.713621	0.649351
	H1108	H	0.059885	0.724253	0.597363
	H1109	H	0.122661	0.786556	0.598606
	H1110	H	0.024094	0.705481	0.899004
	H1111	H	0.086660	0.767946	0.898777
	H1112	H	0.024141	0.705842	0.598293
	H1113	H	0.086647	0.768357	0.597968
	H1114	H	0.060167	0.723771	0.900108
	H1115	H	0.122505	0.786798	0.901063
	H1116	H	0.032575	0.760004	0.849807
	H1117	H	0.091869	0.685497	1.064779
	H1118	H	0.045239	0.764097	0.646776
	H1119	H	0.101099	0.657275	0.451097
	H1120	H	0.045064	0.765475	0.849908
	H1121	H	0.100515	0.656041	1.065428
	H1122	H	0.032703	0.758604	0.646909
	H1123	H	0.092552	0.686892	0.450606
	H1124	H	0.048772	0.713257	0.604930
	H1125	H	0.111108	0.778327	0.604034
	H1126	H	0.035895	0.711159	0.894344
	H1127	H	0.098622	0.771684	0.893496
	H1128	H	0.036167	0.708176	0.604697
	H1129	H	0.098574	0.773118	0.603262
	H1130	H	0.048470	0.716342	0.894427
	H1131	H	0.111207	0.776773	0.894440
	Co1132	Co	0.135025	0.813207	0.625467
	Co1133	Co	0.072442	0.750581	0.622730
	Co1134	Co	0.009929	0.688041	0.873193
	Co1135	Co	0.072519	0.750463	0.873444
	C1136	C	0.019124	0.759275	0.920818
	C1137	C	0.083100	0.716254	0.921281
	C1138	C	0.058469	0.767624	0.575719
	C1139	C	0.109609	0.625791	0.575726
	C1140	C	0.058458	0.767244	0.920862
	C1141	C	0.109553	0.625414	0.921301
	C1142	C	0.019170	0.759334	0.576262
	C1143	C	0.083094	0.716391	0.575253
	C1144	C	0.060999	0.725843	0.671429
	C1145	C	0.123639	0.788218	0.672684
	C1146	C	0.022895	0.704790	0.825790
	C1147	C	0.085442	0.767367	0.825356
	C1148	C	0.022908	0.704985	0.671781
	C1149	C	0.085429	0.767519	0.671271
	C1150	C	0.061121	0.725615	0.826310
	C1151	C	0.123562	0.788451	0.827165
	C1152	C	0.023763	0.757705	0.998436
	C1153	C	0.086181	0.705943	0.498092
	C1154	C	0.053852	0.768082	0.998623
	C1155	C	0.106460	0.636057	0.498619
	C1156	C	0.056995	0.720734	0.749333
	C1157	C	0.119564	0.783275	0.749852
	C1158	C	0.027348	0.707080	0.748930
	C1159	C	0.089861	0.769630	0.748422
	C1160	C	0.031478	0.759066	0.998543
	C1161	C	0.091339	0.688321	0.498149
	C1162	C	0.046208	0.765703	0.998831
	C1163	C	0.101334	0.653755	0.498533
	C1164	C	0.049659	0.715545	0.749576
	C1165	C	0.112218	0.778127	0.749410
	C1166	C	0.034943	0.709705	0.749304
	C1167	C	0.097459	0.772381	0.748616
	C1168	C	0.035254	0.760990	0.915793
	C1169	C	0.093824	0.679106	1.035625
	C1170	C	0.042489	0.763395	0.581109
	C1171	C	0.099030	0.663237	0.471837
	C1172	C	0.042399	0.764130	0.915951
	C1173	C	0.098699	0.662352	1.035516
	C1174	C	0.035353	0.760191	0.581193
	C1175	C	0.094173	0.680002	0.471447
	C1176	C	0.045982	0.712938	0.668645
	C1177	C	0.108424	0.776803	0.667980
	C1178	C	0.038673	0.711676	0.830399
	C1179	C	0.101316	0.773170	0.829790
	C1180	C	0.038827	0.710018	0.668546
	C1181	C	0.101260	0.774027	0.667569
	C1182	C	0.045825	0.714576	0.830516
	C1183	C	0.108474	0.775983	0.830140
	N1184	N	0.012273	0.762480	0.949806
	N1185	N	0.078584	0.731529	0.950635
	N1186	N	0.065361	0.765740	0.547184
	N1187	N	0.114121	0.610462	0.546443
	N1188	N	0.065359	0.765329	0.949368
	N1189	N	0.114087	0.610221	0.950499
	N1190	N	0.012308	0.762434	0.547908
	N1191	N	0.078550	0.731613	0.545917
	N1192	N	0.066886	0.733741	0.700163
	N1193	N	0.129445	0.796413	0.702382
	N1194	N	0.016337	0.701389	0.796834
	N1195	N	0.078890	0.763885	0.796766
	N1196	N	0.016337	0.701487	0.700182
	N1197	N	0.078869	0.763897	0.699792
	N1198	N	0.066961	0.733589	0.796496
	N1199	N	0.129413	0.796483	0.798336
	H1200	H	0.015272	0.855719	0.347010
	H1201	H	0.083026	0.821002	0.347367
	H1202	H	0.052384	0.860803	0.150332
	H1203	H	0.119595	0.830248	0.152247
	H1204	H	0.052380	0.860754	0.346758
	H1205	H	0.119695	0.830846	0.348218
	H1206	H	0.015267	0.855502	0.150773
	H1207	H	0.082839	0.820662	0.150419
	H1208	H	0.054502	0.817034	0.097597
	H1209	H	0.117128	0.878855	0.098738
	H1210	H	0.017953	0.801972	0.399542
	H1211	H	0.080369	0.864813	0.400976
	H1212	H	0.017915	0.802214	0.097522
	H1213	H	0.080384	0.864579	0.097454
	H1214	H	0.054597	0.816742	0.401255
	H1215	H	0.116961	0.879420	0.401484
	H1216	H	0.027501	0.856829	0.349323
	H1217	H	0.095015	0.822717	0.648824
	H1218	H	0.040111	0.860805	-0.150427
	H1219	H	0.107709	0.826277	-0.148427
	H1220	H	0.040109	0.860654	0.349319
	H1221	H	0.107536	0.828126	0.649466
	H1222	H	0.027473	0.856799	-0.150119
	H1223	H	0.095184	0.821013	-0.149007
	H1224	H	0.042565	0.810983	0.099640
	H1225	H	0.105052	0.873378	0.399230
	H1226	H	0.029709	0.809468	0.397316
	H1227	H	0.092323	0.871503	0.100121
	H1228	H	0.029926	0.807231	0.099247
	H1229	H	0.092367	0.870135	0.398485
	H1230	H	0.042372	0.812909	0.398077
	H1231	H	0.104971	0.875102	0.100433
	Co1232	Co	0.130128	0.902532	0.125308
	Co1233	Co	0.067576	0.840300	0.123210
	Co1234	Co	0.005124	0.777582	0.374571
	Co1235	Co	0.067624	0.840249	0.373985
	C1236	C	0.014028	0.856703	0.421436
	C1237	C	0.081679	0.821799	0.421502
	C1238	C	0.053667	0.859651	0.076312
	C1239	C	0.120924	0.829700	0.078049
	C1240	C	0.053651	0.859518	0.421185
	C1241	C	0.120964	0.830106	0.423081
	C1242	C	0.014019	0.856519	0.076913
	C1243	C	0.081578	0.821752	0.076438
	C1244	C	0.055580	0.818326	0.171833
	C1245	C	0.118184	0.880337	0.172927
	C1246	C	0.016894	0.800595	0.325903
	C1247	C	0.079373	0.863181	0.326303
	C1248	C	0.016875	0.800568	0.171580
	C1249	C	0.079371	0.863184	0.171755
	C1250	C	0.055643	0.818205	0.326319
	C1251	C	0.118077	0.880788	0.327744
	C1252	C	0.018647	0.855077	0.498975
	C1253	C	0.086248	0.820153	-0.000910
	C1254	C	0.049030	0.861357	0.498763
	C1255	C	0.116320	0.830397	0.000379
	C1256	C	0.051279	0.814827	0.249281
	C1257	C	0.113810	0.877194	0.250087
	C1258	C	0.021123	0.804458	0.248567
	C1259	C	0.083632	0.867057	0.249025
	C1260	C	0.026362	0.856000	0.499042
	C1261	C	0.093940	0.821530	-0.000342
	C1262	C	0.041285	0.860575	0.499008
	C1263	C	0.108684	0.827994	0.000054
	C1264	C	0.043666	0.811962	0.248909
	C1265	C	0.106196	0.874319	0.249811
	C1266	C	0.028671	0.807964	0.248349
	C1267	C	0.091188	0.870491	0.249143
	C1268	C	0.030203	0.857464	0.415829
	C1269	C	0.097736	0.823509	0.582923
	C1270	C	0.037426	0.859629	-0.084157
	C1271	C	0.104949	0.825699	-0.082780
	C1272	C	0.037428	0.859664	0.415801
	C1273	C	0.104871	0.826740	0.583269
	C1274	C	0.030202	0.857355	-0.083959
	C1275	C	0.097800	0.822508	-0.082760
	C1276	C	0.039829	0.810548	0.165867
	C1277	C	0.102336	0.872978	0.332892
	C1278	C	0.032474	0.809687	0.331542
	C1279	C	0.095044	0.871940	0.166282
	C1280	C	0.032593	0.808484	0.165566
	C1281	C	0.095073	0.871184	0.332415
	C1282	C	0.039731	0.811588	0.331694
	C1283	C	0.102288	0.873874	0.166642
	N1284	N	0.007167	0.860045	0.450150
	N1285	N	0.074815	0.825079	0.449852
	N1286	N	0.060519	0.855995	0.047318
	N1287	N	0.127814	0.827929	0.049952
	N1288	N	0.060487	0.855803	0.450075
	N1289	N	0.127852	0.828217	0.451767
	N1290	N	0.007180	0.859928	0.047946
	N1291	N	0.074731	0.825020	0.047387
	N1292	N	0.061866	0.824053	0.200050
	N1293	N	0.124450	0.886146	0.202022
	N1294	N	0.010719	0.794139	0.297360
	N1295	N	0.073173	0.856930	0.297488
	N1296	N	0.010709	0.794106	0.200495
	N1297	N	0.073190	0.856854	0.200367
	N1298	N	0.061898	0.824042	0.297376
	N1299	N	0.124407	0.886300	0.299293
	H1300	H	0.015303	0.855368	0.847491
	H1301	H	0.082913	0.820840	0.846838
	H1302	H	0.052386	0.860718	0.650553
	H1303	H	0.119641	0.830634	0.652827
	H1304	H	0.052360	0.860499	0.846975
	H1305	H	0.119697	0.830851	0.848537
	H1306	H	0.015223	0.855730	0.651447
	H1307	H	0.082864	0.820389	0.651022
	H1308	H	0.054468	0.817230	0.596035
	H1309	H	0.117073	0.878802	0.598481
	H1310	H	0.017959	0.802183	0.901244
	H1311	H	0.080396	0.865148	0.900758
	H1312	H	0.017952	0.802244	0.597139
	H1313	H	0.080577	0.864581	0.596575
	H1314	H	0.054588	0.816573	0.900702
	H1315	H	0.116960	0.879736	0.903492
	H1316	H	0.027570	0.855552	1.148830
	H1317	H	0.094961	0.822989	1.148095
	H1318	H	0.040190	0.859649	0.648303
	H1319	H	0.107718	0.826592	0.351380
	H1320	H	0.040246	0.859550	1.148402
	H1321	H	0.107524	0.827957	1.148572
	H1322	H	0.027534	0.856069	0.648418
	H1323	H	0.095203	0.821200	0.350976
	H1324	H	0.042516	0.812160	0.897963
	H1325	H	0.105002	0.875418	0.601183
	H1326	H	0.029900	0.807865	0.599371
	H1327	H	0.092407	0.869779	0.899294
	H1328	H	0.029863	0.808720	0.897888
	H1329	H	0.092359	0.871908	0.600593
	H1330	H	0.042548	0.811328	0.599096
	H1331	H	0.105080	0.873154	0.899685
	Co1332	Co	0.130123	0.902501	0.625230
	Co1333	Co	0.067592	0.840332	0.622708
	Co1334	Co	0.005102	0.777817	0.874057
	Co1335	Co	0.067617	0.840300	0.873955
	C1336	C	0.014042	0.856435	0.921938
	C1337	C	0.081620	0.821756	0.921268
	C1338	C	0.053670	0.859514	0.576315
	C1339	C	0.120945	0.829988	0.578036
	C1340	C	0.053661	0.859509	0.921238
	C1341	C	0.120961	0.829994	0.922991
	C1342	C	0.014017	0.856704	0.576428
	C1343	C	0.081614	0.821511	0.576508
	C1344	C	0.055617	0.818354	0.671120
	C1345	C	0.118183	0.880510	0.673221
	C1346	C	0.016867	0.800714	0.826245
	C1347	C	0.079314	0.863485	0.826264
	C1348	C	0.016867	0.800730	0.671745
	C1349	C	0.079426	0.863166	0.671123
	C1350	C	0.055665	0.818193	0.826240
	C1351	C	0.118129	0.880902	0.828377
	C1352	C	0.018677	0.854852	0.999562
	C1353	C	0.086278	0.820031	0.499322
	C1354	C	0.049030	0.861358	0.998881
	C1355	C	0.116322	0.830713	0.500401
	C1356	C	0.051288	0.814893	0.748705
	C1357	C	0.113793	0.877293	0.750793
	C1358	C	0.021159	0.804594	0.748947
	C1359	C	0.083659	0.867210	0.748981
	C1360	C	0.026404	0.855819	0.999442
	C1361	C	0.093976	0.821541	0.499836
	C1362	C	0.041289	0.860553	0.999077
	C1363	C	0.108691	0.828312	0.500331
	C1364	C	0.043702	0.811948	0.748407
	C1365	C	0.106212	0.874391	0.750499
	C1366	C	0.028697	0.808036	0.748662
	C1367	C	0.091191	0.870560	0.749796
	C1368	C	0.030258	0.856747	1.082528
	C1369	C	0.097686	0.823578	1.082372
	C1370	C	0.037461	0.859053	0.582110
	C1371	C	0.104959	0.826021	0.417322
	C1372	C	0.037489	0.858946	1.082423
	C1373	C	0.104842	0.826649	1.082680
	C1374	C	0.030233	0.856990	0.582023
	C1375	C	0.097829	0.822735	0.417006
	C1376	C	0.039824	0.811242	0.831615
	C1377	C	0.102333	0.874070	0.667474
	C1378	C	0.032583	0.808803	0.665683
	C1379	C	0.095074	0.871023	0.832979
	C1380	C	0.032554	0.809359	0.831528
	C1381	C	0.095063	0.872111	0.667219
	C1382	C	0.039836	0.810823	0.665430
	C1383	C	0.102354	0.872912	0.833266
	N1384	N	0.007190	0.859842	0.950553
	N1385	N	0.074757	0.825067	0.949918
	N1386	N	0.060496	0.855869	0.547373
	N1387	N	0.127848	0.828117	0.549506
	N1388	N	0.060503	0.855866	0.949880
	N1389	N	0.127849	0.828119	0.951934
	N1390	N	0.007166	0.860082	0.547637
	N1391	N	0.074769	0.824903	0.547277
	N1392	N	0.061891	0.824050	0.699743
	N1393	N	0.124435	0.886264	0.702148
	N1394	N	0.010696	0.794358	0.797353
	N1395	N	0.073166	0.856973	0.796844
	N1396	N	0.010700	0.794332	0.700434
	N1397	N	0.073254	0.856784	0.699667
	N1398	N	0.061930	0.823975	0.796997
	N1399	N	0.124393	0.886530	0.799211
	H1400	H	0.010058	0.952138	0.347771
	H1401	H	0.077800	0.917865	0.347721
	H1402	H	0.047201	0.957235	0.151677
	H1403	H	0.114937	0.922953	0.152027
	H1404	H	0.047247	0.957195	0.347136
	H1405	H	0.114914	0.922869	0.348462
	H1406	H	0.010089	0.951887	0.151433
	H1407	H	0.077812	0.917990	0.151122
	H1408	H	0.049547	0.913355	0.097788
	H1409	H	0.112016	0.975859	0.098814
	H1410	H	0.012902	0.899392	0.400797
	H1411	H	0.075419	0.961729	0.400630
	H1412	H	0.012928	0.899272	0.097153
	H1413	H	0.075442	0.961645	0.096764
	H1414	H	0.049568	0.913507	0.401012
	H1415	H	0.111921	0.976080	0.402499
	H1416	H	0.022291	0.952809	0.349733
	H1417	H	0.089916	0.919775	0.649655
	H1418	H	0.034999	0.956028	0.149494
	H1419	H	0.102684	0.923119	0.148785
	H1420	H	0.034894	0.956739	0.349181
	H1421	H	0.102575	0.923338	0.649553
	H1422	H	0.022335	0.952472	0.149696
	H1423	H	0.090042	0.919387	0.149324
	H1424	H	0.037671	0.907359	0.100003
	H1425	H	0.100147	0.969559	0.399132
	H1426	H	0.024854	0.905520	0.398661
	H1427	H	0.087410	0.967891	0.100596
	H1428	H	0.024998	0.904135	0.099682
	H1429	H	0.087417	0.966487	0.398816
	H1430	H	0.037534	0.908675	0.399026
	H1431	H	0.100114	0.971345	0.101228
	Co1432	Co	0.125020	1.000114	0.125438
	Co1433	Co	0.062488	0.937427	0.123820
	Co1434	Co	-0.000016	0.875092	0.374005
	Co1435	Co	0.062515	0.937629	0.374400
	C1436	C	0.008847	0.953191	0.422448
	C1437	C	0.076546	0.918964	0.422074
	C1438	C	0.048466	0.956104	0.077123
	C1439	C	0.116200	0.921821	0.077535
	C1440	C	0.048471	0.956128	0.421823
	C1441	C	0.116169	0.921634	0.423235
	C1442	C	0.008819	0.953074	0.077071
	C1443	C	0.076554	0.918965	0.076880
	C1444	C	0.050623	0.914863	0.172224
	C1445	C	0.113174	0.977350	0.173180
	C1446	C	0.011814	0.897977	0.326221
	C1447	C	0.074340	0.960256	0.326160
	C1448	C	0.011856	0.897861	0.171685
	C1449	C	0.074361	0.960081	0.171649
	C1450	C	0.050625	0.915031	0.326783
	C1451	C	0.113094	0.977695	0.328148
	C1452	C	0.013460	0.951362	0.499988
	C1453	C	0.081211	0.917395	-0.000490
	C1454	C	0.043857	0.957758	0.499051
	C1455	C	0.111579	0.923817	-0.000287
	C1456	C	0.046333	0.911271	0.249616
	C1457	C	0.108850	0.973859	0.250529
	C1458	C	0.016133	0.901631	0.249135
	C1459	C	0.078656	0.963869	0.249022
	C1460	C	0.021216	0.952135	0.499602
	C1461	C	0.088936	0.918395	-0.000282
	C1462	C	0.036113	0.956786	0.499019
	C1463	C	0.103853	0.923081	-0.000561
	C1464	C	0.038754	0.908220	0.249414
	C1465	C	0.101253	0.970719	0.250151
	C1466	C	0.023727	0.904669	0.249069
	C1467	C	0.086243	0.967052	0.249654
	C1468	C	0.025021	0.953488	0.416159
	C1469	C	0.092667	0.919966	0.583136
	C1470	C	0.032266	0.955425	0.083217
	C1471	C	0.099985	0.922077	0.082665
	C1472	C	0.032218	0.955773	0.415879
	C1473	C	0.099895	0.922113	0.583249
	C1474	C	0.025050	0.953214	0.083225
	C1475	C	0.092754	0.919971	0.082877
	C1476	C	0.034912	0.906968	0.166177
	C1477	C	0.097402	0.969196	0.332910
	C1478	C	0.027571	0.905931	0.332290
	C1479	C	0.090136	0.968352	0.166995
	C1480	C	0.027648	0.905261	0.166066
	C1481	C	0.090126	0.967487	0.332638
	C1482	C	0.034841	0.907632	0.332506
	C1483	C	0.097383	0.970306	0.167039
	N1484	N	0.001988	0.956908	0.451273
	N1485	N	0.069687	0.922412	0.450774
	N1486	N	0.055318	0.952744	0.047906
	N1487	N	0.123049	0.918081	0.048972
	N1488	N	0.055317	0.952727	0.450350
	N1489	N	0.122985	0.917983	0.452076
	N1490	N	0.001976	0.956698	0.048531
	N1491	N	0.069709	0.922362	0.048108
	N1492	N	0.056842	0.921059	0.200984
	N1493	N	0.119371	0.983602	0.202410
	N1494	N	0.005639	0.891660	0.297434
	N1495	N	0.068128	0.953987	0.297328
	N1496	N	0.005655	0.891642	0.200290
	N1497	N	0.068128	0.953946	0.200386
	N1498	N	0.056842	0.921128	0.298057
	N1499	N	0.119329	0.983813	0.299308
	H1500	H	0.010069	0.952038	0.848108
	H1501	H	0.077845	0.918096	0.847655
	H1502	H	0.047239	0.957260	0.650368
	H1503	H	0.114845	0.922571	0.652596
	H1504	H	0.047132	0.956886	0.848191
	H1505	H	0.114991	0.923220	0.848171
	H1506	H	0.010103	0.952043	0.652067
	H1507	H	0.077768	0.917621	0.651801
	H1508	H	0.049530	0.913577	0.597975
	H1509	H	0.112109	0.975912	0.598630
	H1510	H	0.013031	0.899087	0.901109
	H1511	H	0.075447	0.961601	0.901028
	H1512	H	0.012921	0.899598	0.598352
	H1513	H	0.075526	0.961066	0.598214
	H1514	H	0.049600	0.913242	0.901106
	H1515	H	0.112002	0.976410	0.902240
	H1516	H	0.022345	0.952644	0.850159
	H1517	H	0.090120	0.918237	0.850285
	H1518	H	0.035033	0.955918	0.648824
	H1519	H	0.102785	0.921434	0.351015
	H1520	H	0.034988	0.956302	0.850022
	H1521	H	0.102733	0.922358	0.850042
	H1522	H	0.022394	0.952230	0.649258
	H1523	H	0.090108	0.917340	0.350573
	H1524	H	0.037617	0.908337	0.899105
	H1525	H	0.100035	0.971407	0.600702
	H1526	H	0.024996	0.904245	0.599696
	H1527	H	0.087436	0.966791	0.899643
	H1528	H	0.024866	0.905131	0.898877
	H1529	H	0.087423	0.967644	0.600472
	H1530	H	0.037647	0.907670	0.600225
	H1531	H	0.100128	0.970176	0.899683
	Co1532	Co	0.124990	1.000185	0.625413
	Co1533	Co	0.062508	0.937518	0.624432
	Co1534	Co	0.000042	0.875171	0.874573
	Co1535	Co	0.062545	0.937503	0.874400
	C1536	C	0.008813	0.953050	0.922521
	C1537	C	0.076584	0.919147	0.922060
	C1538	C	0.048476	0.956094	0.576357
	C1539	C	0.116134	0.921652	0.578252
	C1540	C	0.048437	0.955913	0.922027
	C1541	C	0.116231	0.921956	0.922438
	C1542	C	0.008859	0.953270	0.577533
	C1543	C	0.076538	0.918708	0.577151
	C1544	C	0.050663	0.914974	0.672308
	C1545	C	0.113195	0.977354	0.673118
	C1546	C	0.011876	0.897829	0.826754
	C1547	C	0.074349	0.960272	0.826699
	C1548	C	0.011849	0.897976	0.672068
	C1549	C	0.074400	0.960055	0.672123
	C1550	C	0.050713	0.914845	0.826997
	C1551	C	0.113141	0.977632	0.827808
	C1552	C	0.013443	0.951277	0.999792
	C1553	C	0.081174	0.917150	0.499583
	C1554	C	0.043833	0.957616	0.999690
	C1555	C	0.111527	0.923488	0.500413
	C1556	C	0.046370	0.911288	0.749857
	C1557	C	0.108854	0.973906	0.750363
	C1558	C	0.016174	0.901587	0.749497
	C1559	C	0.078681	0.963756	0.749562
	C1560	C	0.021200	0.952025	0.999922
	C1561	C	0.088898	0.918082	0.499810
	C1562	C	0.036096	0.956661	0.999937
	C1563	C	0.103774	0.922796	0.500046
	C1564	C	0.038767	0.908196	0.749711
	C1565	C	0.101256	0.970842	0.750263
	C1566	C	0.023749	0.904677	0.749479
	C1567	C	0.086251	0.967024	0.750067
	C1568	C	0.025060	0.953246	0.916606
	C1569	C	0.092809	0.919333	0.916567
	C1570	C	0.032301	0.955250	0.582393
	C1571	C	0.099994	0.921095	0.416881
	C1572	C	0.032273	0.955496	0.916534
	C1573	C	0.100035	0.921635	0.916522
	C1574	C	0.025088	0.953128	0.582676
	C1575	C	0.092784	0.918744	0.416914
	C1576	C	0.034876	0.907444	0.832935
	C1577	C	0.097364	0.970305	0.667132
	C1578	C	0.027637	0.905327	0.666305
	C1579	C	0.090126	0.967830	0.833426
	C1580	C	0.027607	0.905725	0.832687
	C1581	C	0.090121	0.968270	0.667135
	C1582	C	0.034903	0.907111	0.666393
	C1583	C	0.097395	0.969602	0.833400
	N1584	N	0.001976	0.956715	0.951118
	N1585	N	0.069751	0.922494	0.950540
	N1586	N	0.055323	0.952728	0.547962
	N1587	N	0.122972	0.917987	0.549545
	N1588	N	0.055308	0.952570	0.950978
	N1589	N	0.123059	0.918148	0.951505
	N1590	N	0.001992	0.956967	0.548440
	N1591	N	0.069672	0.922224	0.548216
	N1592	N	0.056902	0.921080	0.701179
	N1593	N	0.119412	0.983533	0.702056
	N1594	N	0.005659	0.891665	0.797795
	N1595	N	0.068132	0.954097	0.797694
	N1596	N	0.005661	0.891699	0.700858
	N1597	N	0.068177	0.953935	0.700546
	N1598	N	0.056916	0.921061	0.797880
	N1599	N	0.119374	0.983701	0.799007
	H1600	H	0.135056	0.076571	0.347923
	H1601	H	0.202857	0.042836	0.347203
	H1602	H	0.172292	0.082067	0.151191
	H1603	H	0.239959	0.047799	0.151038
	H1604	H	0.172207	0.081664	0.347401
	H1605	H	0.239896	0.047819	0.347057
	H1606	H	0.135178	0.076968	0.152284
	H1607	H	0.202779	0.042613	0.151517
	H1608	H	0.174574	0.038410	0.097704
	H1609	H	0.237122	0.100798	0.098022
	H1610	H	0.137974	0.024521	0.401748
	H1611	H	0.200448	0.086910	0.400609
	H1612	H	0.137999	0.024097	0.098202
	H1613	H	0.200532	0.086460	0.097971
	H1614	H	0.174692	0.038141	0.401437
	H1615	H	0.237010	0.100829	0.400978
	H1616	H	0.147330	0.077405	0.350426
	H1617	H	0.215030	0.042669	0.349803
	H1618	H	0.160056	0.081476	0.149171
	H1619	H	0.227821	0.046496	-0.149917
	H1620	H	0.159993	0.081208	0.350173
	H1621	H	0.227672	0.046531	0.349715
	H1622	H	0.147410	0.077718	0.149440
	H1623	H	0.215118	0.042953	-0.150093
	H1624	H	0.162626	0.032800	0.100835
	H1625	H	0.225047	0.096143	0.099832
	H1626	H	0.149969	0.029694	0.399310
	H1627	H	0.212515	0.091240	0.399057
	H1628	H	0.149922	0.029702	0.100859
	H1629	H	0.212401	0.092899	0.099285
	H1630	H	0.162688	0.032751	0.399168
	H1631	H	0.225200	0.094467	0.399234
	Co1632	Co	0.250010	0.124832	0.124813
	Co1633	Co	0.187568	0.062376	0.123654
	Co1634	Co	0.124971	0.000334	0.376155
	Co1635	Co	0.187543	0.062588	0.374262
	C1636	C	0.133834	0.077773	0.422742
	C1637	C	0.201537	0.043899	0.421606
	C1638	C	0.173534	0.081024	0.076704
	C1639	C	0.241207	0.046719	0.076760
	C1640	C	0.173477	0.081041	0.421907
	C1641	C	0.241138	0.046651	0.421705
	C1642	C	0.133917	0.078067	0.077946
	C1643	C	0.201580	0.043722	0.076318
	C1644	C	0.175689	0.039835	0.172155
	C1645	C	0.238192	0.102132	0.172444
	C1646	C	0.136889	0.022844	0.327505
	C1647	C	0.199371	0.085287	0.326466
	C1648	C	0.136911	0.022672	0.172749
	C1649	C	0.199427	0.084977	0.171973
	C1650	C	0.175736	0.039722	0.326939
	C1651	C	0.238137	0.102226	0.326896
	C1652	C	0.138496	0.076128	0.500097
	C1653	C	0.206218	0.042238	-0.000907
	C1654	C	0.168854	0.082759	0.499597
	C1655	C	0.236610	0.048586	-0.000787
	C1656	C	0.171410	0.036107	0.249585
	C1657	C	0.233887	0.098459	0.249484
	C1658	C	0.141190	0.026406	0.250133
	C1659	C	0.203682	0.088834	0.249346
	C1660	C	0.146238	0.076834	0.500002
	C1661	C	0.213945	0.043228	-0.000648
	C1662	C	0.161127	0.081651	0.499650
	C1663	C	0.228830	0.047874	-0.000867
	C1664	C	0.163806	0.032988	0.249794
	C1665	C	0.226296	0.095433	0.249394
	C1666	C	0.148777	0.029489	0.250064
	C1667	C	0.211274	0.091937	0.249438
	C1668	C	0.150074	0.078000	0.416724
	C1669	C	0.217719	0.043834	0.416225
	C1670	C	0.157346	0.080510	0.083053
	C1671	C	0.225019	0.046246	-0.084155
	C1672	C	0.157292	0.080322	0.416411
	C1673	C	0.224935	0.046116	0.416118
	C1674	C	0.150123	0.078299	0.083230
	C1675	C	0.217812	0.044030	-0.083841
	C1676	C	0.159911	0.032119	0.166967
	C1677	C	0.222376	0.095009	0.166203
	C1678	C	0.152683	0.030300	0.333085
	C1679	C	0.215213	0.092271	0.332613
	C1680	C	0.152653	0.030341	0.166985
	C1681	C	0.215109	0.093323	0.165910
	C1682	C	0.159951	0.032041	0.333041
	C1683	C	0.222471	0.094022	0.332783
	N1684	N	0.127000	0.081598	0.451970
	N1685	N	0.194681	0.047328	0.450213
	N1686	N	0.180358	0.077588	0.047876
	N1687	N	0.248057	0.042850	0.047928
	N1688	N	0.180328	0.077702	0.450363
	N1689	N	0.247955	0.042918	0.450687
	N1690	N	0.127066	0.081733	0.049247
	N1691	N	0.194717	0.047188	0.047366
	N1692	N	0.181890	0.045999	0.200773
	N1693	N	0.244373	0.108424	0.201691
	N1694	N	0.130656	0.016648	0.298769
	N1695	N	0.193158	0.079012	0.297517
	N1696	N	0.130681	0.016532	0.201663
	N1697	N	0.193190	0.078840	0.200617
	N1698	N	0.181927	0.045938	0.297877
	N1699	N	0.244349	0.108488	0.298612
	H1700	H	0.135133	0.077092	0.848175
	H1701	H	0.202836	0.043153	0.847390
	H1702	H	0.172302	0.082377	0.651636
	H1703	H	0.239884	0.047766	0.651533
	H1704	H	0.172247	0.081971	0.847380
	H1705	H	0.239916	0.047831	0.847737
	H1706	H	0.135192	0.077521	0.652295
	H1707	H	0.202727	0.042427	0.650384
	H1708	H	0.174481	0.038479	0.597173
	H1709	H	0.236972	0.100782	0.598171
	H1710	H	0.138021	0.024072	0.902007
	H1711	H	0.200465	0.086557	0.900528
	H1712	H	0.137829	0.024554	0.598755
	H1713	H	0.200444	0.086572	0.596920
	H1714	H	0.174631	0.038089	0.900811
	H1715	H	0.237049	0.100708	0.901295
	H1716	H	0.147371	0.077436	0.850634
	H1717	H	0.215051	0.044583	1.149205
	H1718	H	0.160050	0.080891	0.649242
	H1719	H	0.227642	0.048082	0.649119
	H1720	H	0.160026	0.081082	0.850348
	H1721	H	0.227696	0.048231	1.148532
	H1722	H	0.147390	0.077082	0.649566
	H1723	H	0.215011	0.044150	0.649949
	H1724	H	0.162667	0.032787	0.898598
	H1725	H	0.225125	0.094783	0.898986
	H1726	H	0.149882	0.029506	0.600755
	H1727	H	0.212407	0.092392	0.599517
	H1728	H	0.149985	0.029713	0.899085
	H1729	H	0.212442	0.091495	0.898521
	H1730	H	0.162596	0.032725	0.600494
	H1731	H	0.225097	0.095702	0.599300
	Co1732	Co	0.249996	0.124851	0.624735
	Co1733	Co	0.187514	0.062554	0.623273
	Co1734	Co	0.125018	0.000158	0.875971
	Co1735	Co	0.187535	0.062394	0.874379
	C1736	C	0.133899	0.078030	0.922635
	C1737	C	0.201608	0.043991	0.921541
	C1738	C	0.173506	0.081241	0.576935
	C1739	C	0.241138	0.046614	0.576656
	C1740	C	0.173522	0.080929	0.921677
	C1741	C	0.241202	0.046652	0.921832
	C1742	C	0.133898	0.078178	0.577800
	C1743	C	0.201485	0.043637	0.576868
	C1744	C	0.175628	0.039949	0.671471
	C1745	C	0.238163	0.102170	0.672221
	C1746	C	0.136907	0.022752	0.827697
	C1747	C	0.199344	0.085144	0.826145
	C1748	C	0.136861	0.022755	0.673145
	C1749	C	0.199361	0.085081	0.671425
	C1750	C	0.175703	0.039607	0.826503
	C1751	C	0.238160	0.102196	0.827011
	C1752	C	0.138532	0.076195	1.000235
	C1753	C	0.206142	0.041996	0.499401
	C1754	C	0.168892	0.082644	0.999225
	C1755	C	0.236507	0.048514	0.499115
	C1756	C	0.171398	0.036090	0.749007
	C1757	C	0.233854	0.098542	0.749581
	C1758	C	0.141164	0.026433	0.750295
	C1759	C	0.203671	0.088797	0.748937
	C1760	C	0.146265	0.077071	1.000073
	C1761	C	0.213871	0.042938	0.499678
	C1762	C	0.161166	0.081719	0.999624
	C1763	C	0.228769	0.047720	0.499378
	C1764	C	0.163790	0.032929	0.749316
	C1765	C	0.226279	0.095386	0.749454
	C1766	C	0.148760	0.029446	0.749750
	C1767	C	0.211252	0.091876	0.749223
	C1768	C	0.150082	0.078308	0.916671
	C1769	C	0.217754	0.044942	1.082597
	C1770	C	0.157306	0.080225	0.582967
	C1771	C	0.224929	0.046893	0.582844
	C1772	C	0.157312	0.080503	0.916602
	C1773	C	0.224964	0.047169	1.082473
	C1774	C	0.150083	0.078003	0.583196
	C1775	C	0.217700	0.044631	0.582950
	C1776	C	0.159931	0.032130	0.832558
	C1777	C	0.222418	0.094195	0.832456
	C1778	C	0.152621	0.030231	0.666696
	C1779	C	0.215128	0.092956	0.665939
	C1780	C	0.152670	0.030393	0.832673
	C1781	C	0.215145	0.092489	0.832212
	C1782	C	0.159879	0.031973	0.666568
	C1783	C	0.222398	0.094742	0.665966
	N1784	N	0.127056	0.081712	0.951782
	N1785	N	0.194758	0.047334	0.950069
	N1786	N	0.180340	0.077829	0.547747
	N1787	N	0.247970	0.042914	0.547913
	N1788	N	0.180361	0.077602	0.950415
	N1789	N	0.248041	0.042798	0.950965
	N1790	N	0.127043	0.081793	0.549447
	N1791	N	0.194638	0.047198	0.547549
	N1792	N	0.181851	0.046163	0.700489
	N1793	N	0.244368	0.108396	0.701340
	N1794	N	0.130677	0.016562	0.799149
	N1795	N	0.193131	0.078956	0.797259
	N1796	N	0.130644	0.016669	0.702095
	N1797	N	0.193154	0.078891	0.700312
	N1798	N	0.181903	0.045923	0.797435
	N1799	N	0.244360	0.108397	0.798218
	H1800	H	0.130333	0.168890	0.348126
	H1801	H	0.197566	0.139503	0.346610
	H1802	H	0.167184	0.178962	0.150955
	H1803	H	0.234765	0.144240	0.151315
	H1804	H	0.167094	0.179396	0.346979
	H1805	H	0.234793	0.144903	0.348261
	H1806	H	0.130366	0.169670	0.153177
	H1807	H	0.197576	0.138900	0.150227
	H1808	H	0.169530	0.134863	0.096892
	H1809	H	0.231964	0.197895	0.098957
	H1810	H	0.133042	0.120222	0.401418
	H1811	H	0.195412	0.183391	0.400166
	H1812	H	0.132895	0.120905	0.097988
	H1813	H	0.195547	0.182670	0.096252
	H1814	H	0.169524	0.135320	0.400590
	H1815	H	0.231967	0.198000	0.401477
	H1816	H	0.142366	0.172798	0.351247
	H1817	H	0.209905	0.139169	0.348994
	H1818	H	0.154991	0.177776	0.148520
	H1819	H	0.222478	0.144393	0.148540
	H1820	H	0.154867	0.178319	0.351172
	H1821	H	0.222512	0.142983	0.349495
	H1822	H	0.142443	0.172577	0.149320
	H1823	H	0.209840	0.140409	0.148240
	H1824	H	0.157594	0.128992	0.100091
	H1825	H	0.220102	0.192496	0.099972
	H1826	H	0.144981	0.125732	0.399077
	H1827	H	0.207493	0.187406	0.398298
	H1828	H	0.144903	0.125486	0.100458
	H1829	H	0.207451	0.188903	0.099567
	H1830	H	0.157650	0.129167	0.398922
	H1831	H	0.220169	0.190900	0.399053
	Co1832	Co	0.244874	0.222228	0.123824
	Co1833	Co	0.182405	0.159427	0.122560
	Co1834	Co	0.119872	0.097137	0.376089
	Co1835	Co	0.182325	0.159830	0.373950
	C1836	C	0.129063	0.169756	0.422845
	C1837	C	0.196311	0.140611	0.421030
	C1838	C	0.168430	0.178149	0.076435
	C1839	C	0.235994	0.143502	0.076940
	C1840	C	0.168344	0.178222	0.421270
	C1841	C	0.235946	0.143663	0.422767
	C1842	C	0.129093	0.170114	0.078456
	C1843	C	0.196378	0.140234	0.075918
	C1844	C	0.170616	0.136523	0.171462
	C1845	C	0.233097	0.199280	0.172742
	C1846	C	0.131921	0.118986	0.327246
	C1847	C	0.194325	0.181765	0.325778
	C1848	C	0.131834	0.119355	0.172522
	C1849	C	0.194394	0.181470	0.170987
	C1850	C	0.170594	0.136846	0.326257
	C1851	C	0.233109	0.199325	0.327408
	C1852	C	0.133686	0.169118	0.500379
	C1853	C	0.201013	0.138573	-0.001302
	C1854	C	0.163751	0.179891	0.498937
	C1855	C	0.231397	0.145232	-0.000559
	C1856	C	0.166339	0.132794	0.249052
	C1857	C	0.228845	0.195414	0.250109
	C1858	C	0.136196	0.122562	0.249814
	C1859	C	0.198702	0.185077	0.248595
	C1860	C	0.141335	0.171538	0.500183
	C1861	C	0.208780	0.139443	-0.001178
	C1862	C	0.156063	0.178263	0.499329
	C1863	C	0.223660	0.144311	-0.000746
	C1864	C	0.158771	0.129385	0.249383
	C1865	C	0.221294	0.191945	0.249693
	C1866	C	0.143801	0.125474	0.249694
	C1867	C	0.206292	0.188072	0.248942
	C1868	C	0.145067	0.173694	0.417346
	C1869	C	0.212576	0.140218	0.415520
	C1870	C	0.152289	0.176721	0.082686
	C1871	C	0.219787	0.143350	0.082422
	C1872	C	0.152201	0.176940	0.417068
	C1873	C	0.219780	0.142473	0.415876
	C1874	C	0.145138	0.173649	0.083293
	C1875	C	0.212587	0.141060	0.082175
	C1876	C	0.154899	0.128268	0.166389
	C1877	C	0.217415	0.191336	0.166415
	C1878	C	0.147687	0.126473	0.332754
	C1879	C	0.210180	0.188540	0.332079
	C1880	C	0.147661	0.126259	0.166546
	C1881	C	0.210165	0.189379	0.166181
	C1882	C	0.154933	0.128428	0.332470
	C1883	C	0.217440	0.190469	0.332574
	N1884	N	0.122159	0.171672	0.451548
	N1885	N	0.189463	0.144321	0.449758
	N1886	N	0.175278	0.174824	0.047316
	N1887	N	0.242851	0.140051	0.048430
	N1888	N	0.175206	0.175081	0.449880
	N1889	N	0.242782	0.140178	0.451703
	N1890	N	0.122195	0.171959	0.050054
	N1891	N	0.189547	0.144043	0.046820
	N1892	N	0.176784	0.143030	0.200130
	N1893	N	0.239250	0.205787	0.201507
	N1894	N	0.125637	0.113237	0.298782
	N1895	N	0.188067	0.175866	0.296659
	N1896	N	0.125576	0.113446	0.201662
	N1897	N	0.188117	0.175683	0.199642
	N1898	N	0.176766	0.143218	0.297154
	N1899	N	0.239259	0.205824	0.298395
	H1900	H	0.130319	0.168890	0.848768
	H1901	H	0.197675	0.139913	0.846583
	H1902	H	0.167102	0.179580	0.650440
	H1903	H	0.234658	0.143978	0.651946
	H1904	H	0.167136	0.179369	0.847185
	H1905	H	0.234798	0.144721	0.847551
	H1906	H	0.130350	0.169190	0.652561
	H1907	H	0.197558	0.139336	0.650669
	H1908	H	0.169558	0.135125	0.597258
	H1909	H	0.232103	0.197574	0.598040
	H1910	H	0.133076	0.120464	0.902864
	H1911	H	0.195441	0.183311	0.900581
	H1912	H	0.132995	0.120716	0.598525
	H1913	H	0.195568	0.182727	0.596482
	H1914	H	0.169577	0.135340	0.900856
	H1915	H	0.232015	0.197955	0.901016
	H1916	H	0.142361	0.172954	0.851618
	H1917	H	0.209980	0.139301	0.849320
	H1918	H	0.155037	0.177650	0.647798
	H1919	H	0.222366	0.144294	0.649167
	H1920	H	0.154892	0.178308	0.850980
	H1921	H	0.222608	0.143265	0.849799
	H1922	H	0.142507	0.172098	0.648688
	H1923	H	0.209748	0.140506	0.648895
	H1924	H	0.157694	0.128346	0.599874
	H1925	H	0.220169	0.192210	0.599822
	H1926	H	0.145013	0.126356	0.899347
	H1927	H	0.207525	0.187844	0.897758
	H1928	H	0.145056	0.124897	0.600493
	H1929	H	0.207513	0.188583	0.599522
	H1930	H	0.157695	0.129668	0.898995
	H1931	H	0.220198	0.191336	0.898091
	Co1932	Co	0.244927	0.222290	0.623891
	Co1933	Co	0.182360	0.159776	0.623142
	Co1934	Co	0.119950	0.097256	0.876068
	Co1935	Co	0.182420	0.159710	0.873969
	C1936	C	0.129077	0.169831	0.923425
	C1937	C	0.196424	0.140606	0.921069
	C1938	C	0.168371	0.178394	0.576110
	C1939	C	0.235887	0.143229	0.577450
	C1940	C	0.168411	0.178216	0.921554
	C1941	C	0.236005	0.143612	0.922184
	C1942	C	0.129068	0.169926	0.577916
	C1943	C	0.196319	0.140505	0.575875
	C1944	C	0.170635	0.136599	0.671559
	C1945	C	0.233168	0.199304	0.672293
	C1946	C	0.131939	0.119229	0.828082
	C1947	C	0.194390	0.181818	0.825786
	C1948	C	0.131895	0.119340	0.673008
	C1949	C	0.194454	0.181559	0.671084
	C1950	C	0.170653	0.136760	0.826288
	C1951	C	0.233151	0.199384	0.826642
	C1952	C	0.133692	0.169354	1.000927
	C1953	C	0.200929	0.138698	0.498455
	C1954	C	0.163794	0.179821	0.999340
	C1955	C	0.231295	0.145089	0.499935
	C1956	C	0.166386	0.132743	0.749012
	C1957	C	0.228902	0.195436	0.749395
	C1958	C	0.136255	0.122663	0.750516
	C1959	C	0.198739	0.185161	0.748455
	C1960	C	0.141325	0.171890	1.000549
	C1961	C	0.208685	0.139376	0.498800
	C1962	C	0.156068	0.178416	0.999737
	C1963	C	0.223570	0.144119	0.499367
	C1964	C	0.158855	0.129268	0.749517
	C1965	C	0.221342	0.192020	0.748927
	C1966	C	0.143862	0.125476	0.750239
	C1967	C	0.206343	0.188188	0.748653
	C1968	C	0.145089	0.173922	0.917510
	C1969	C	0.212658	0.140361	0.915622
	C1970	C	0.152313	0.176446	0.582232
	C1971	C	0.219695	0.143305	0.582635
	C1972	C	0.152237	0.177015	0.916997
	C1973	C	0.219863	0.142650	0.915883
	C1974	C	0.145173	0.173305	0.582444
	C1975	C	0.212483	0.141016	0.582408
	C1976	C	0.155001	0.127857	0.666449
	C1977	C	0.217474	0.191220	0.666042
	C1978	C	0.147739	0.126737	0.833123
	C1979	C	0.210243	0.188866	0.831702
	C1980	C	0.147747	0.125930	0.666941
	C1981	C	0.210223	0.189330	0.665801
	C1982	C	0.154994	0.128611	0.832806
	C1983	C	0.217492	0.190736	0.831751
	N1984	N	0.122176	0.171795	0.952009
	N1985	N	0.189577	0.144209	0.949442
	N1986	N	0.175220	0.175131	0.547312
	N1987	N	0.242743	0.139864	0.548989
	N1988	N	0.175269	0.174874	0.949988
	N1989	N	0.242850	0.140100	0.951095
	N1990	N	0.122174	0.171761	0.549547
	N1991	N	0.189472	0.144232	0.547289
	N1992	N	0.176775	0.143168	0.700214
	N1993	N	0.239325	0.205790	0.701125
	N1994	N	0.125657	0.113436	0.799379
	N1995	N	0.188119	0.175956	0.797014
	N1996	N	0.125617	0.113543	0.702084
	N1997	N	0.188163	0.175811	0.699836
	N1998	N	0.176798	0.143199	0.797349
	N1999	N	0.239304	0.205910	0.797865
	H2000	H	0.141454	0.371717	0.347513
	H2001	H	0.192863	0.231840	0.346483
	H2002	H	0.166159	0.286310	0.149539
	H2003	H	0.229614	0.241718	0.151576
	H2004	H	0.165988	0.286048	0.347773
	H2005	H	0.229604	0.242096	0.347504
	H2006	H	0.141319	0.371616	0.149056
	H2007	H	0.192840	0.231635	0.151214
	H2008	H	0.163364	0.231641	0.097992
	H2009	H	0.225847	0.294365	0.098631
	H2010	H	0.127551	0.212793	0.402068
	H2011	H	0.189912	0.275935	0.400187
	H2012	H	0.127320	0.214012	0.099382
	H2013	H	0.189985	0.275679	0.097518
	H2014	H	0.163387	0.231652	0.399809
	H2015	H	0.225859	0.294362	0.399641
	H2016	H	0.149392	0.343652	0.532021
	H2017	H	0.204981	0.234683	0.349538
	H2018	H	0.157747	0.313668	-0.066365
	H2019	H	0.217374	0.240745	0.148788
	H2020	H	0.157956	0.314014	0.531828
	H2021	H	0.217463	0.240245	0.349892
	H2022	H	0.149244	0.343403	-0.066825
	H2023	H	0.204858	0.235550	0.148370
	H2024	H	0.151434	0.226967	0.103386
	H2025	H	0.213864	0.291056	0.103927
	H2026	H	0.138836	0.223218	0.396128
	H2027	H	0.201375	0.284481	0.394392
	H2028	H	0.138901	0.221803	0.104164
	H2029	H	0.201298	0.285692	0.103476
	H2030	H	0.151403	0.228350	0.395590
	H2031	H	0.213956	0.289611	0.394930
	Co2032	Co	0.239984	0.311888	0.123607
	Co2033	Co	0.177544	0.249100	0.123331
	Co2034	Co	0.115031	0.186722	0.375818
	Co2035	Co	0.177506	0.249162	0.374146
	C2036	C	0.140567	0.374433	0.421407
	C2037	C	0.191567	0.232349	0.421139
	C2038	C	0.166960	0.283504	0.075584
	C2039	C	0.230845	0.240780	0.077015
	C2040	C	0.166862	0.283407	0.421533
	C2041	C	0.230882	0.240975	0.421921
	C2042	C	0.140483	0.374348	0.075074
	C2043	C	0.191573	0.232319	0.076290
	C2044	C	0.164580	0.232269	0.171845
	C2045	C	0.227048	0.295101	0.172015
	C2046	C	0.126458	0.211514	0.327993
	C2047	C	0.188899	0.274121	0.326079
	C2048	C	0.126350	0.211943	0.173311
	C2049	C	0.188963	0.273856	0.171445
	C2050	C	0.164603	0.232339	0.326060
	C2051	C	0.227068	0.295048	0.326409
	C2052	C	0.143560	0.363884	0.498879
	C2053	C	0.196174	0.231873	-0.000890
	C2054	C	0.163840	0.293979	0.498641
	C2055	C	0.226253	0.242457	-0.000457
	C2056	C	0.160125	0.230251	0.249137
	C2057	C	0.222617	0.292899	0.249266
	C2058	C	0.130465	0.216739	0.250462
	C2059	C	0.192961	0.279024	0.248799
	C2060	C	0.148708	0.346248	0.499131
	C2061	C	0.203825	0.234352	-0.000424
	C2062	C	0.158709	0.311689	0.499036
	C2063	C	0.218529	0.241010	-0.000329
	C2064	C	0.152546	0.227653	0.249515
	C2065	C	0.215010	0.290307	0.249244
	C2066	C	0.137787	0.221892	0.250281
	C2067	C	0.200287	0.284316	0.248963
	C2068	C	0.151255	0.337282	0.517495
	C2069	C	0.207635	0.235971	0.415771
	C2070	C	0.156017	0.320343	-0.038102
	C2071	C	0.214699	0.239632	0.082728
	C2072	C	0.156125	0.320539	0.517668
	C2073	C	0.214771	0.239274	0.416077
	C2074	C	0.151174	0.337124	-0.038255
	C2075	C	0.207582	0.236427	0.082459
	C2076	C	0.148754	0.226027	0.168333
	C2077	C	0.211177	0.289466	0.167936
	C2078	C	0.141536	0.224060	0.331526
	C2079	C	0.204078	0.285816	0.330375
	C2080	C	0.141575	0.223288	0.168670
	C2081	C	0.204028	0.286517	0.167637
	C2082	C	0.148716	0.226880	0.331136
	C2083	C	0.211226	0.288763	0.330583
	N2084	N	0.136004	0.389656	0.450323
	N2085	N	0.184669	0.234246	0.449907
	N2086	N	0.171509	0.268245	0.046213
	N2087	N	0.237719	0.237538	0.048370
	N2088	N	0.171404	0.268167	0.450874
	N2089	N	0.237714	0.237700	0.450790
	N2090	N	0.135905	0.389494	0.045658
	N2091	N	0.184684	0.234214	0.047669
	N2092	N	0.171129	0.235699	0.199984
	N2093	N	0.233620	0.298531	0.200697
	N2094	N	0.120593	0.203641	0.299012
	N2095	N	0.183074	0.266019	0.297013
	N2096	N	0.120535	0.203829	0.202584
	N2097	N	0.183092	0.265940	0.200573
	N2098	N	0.171156	0.235734	0.297013
	N2099	N	0.233631	0.298532	0.297369
	H2100	H	0.141197	0.371346	0.846965
	H2101	H	0.192843	0.231848	0.846784
	H2102	H	0.166272	0.286734	0.649435
	H2103	H	0.229577	0.241534	0.650988
	H2104	H	0.166053	0.286270	0.847732
	H2105	H	0.229634	0.241976	0.848041
	H2106	H	0.141108	0.371147	0.649600
	H2107	H	0.192836	0.231613	0.650307
	H2108	H	0.163345	0.231892	0.597759
	H2109	H	0.225871	0.294449	0.598002
	H2110	H	0.127581	0.213077	0.901370
	H2111	H	0.190000	0.275823	0.900441
	H2112	H	0.127384	0.213428	0.597899
	H2113	H	0.189986	0.275989	0.596668
	H2114	H	0.163455	0.231810	0.899521
	H2115	H	0.225852	0.294488	0.899054
	H2116	H	0.149602	0.344109	1.063497
	H2117	H	0.204905	0.235109	0.850803
	H2118	H	0.157989	0.314201	0.466390
	H2119	H	0.217327	0.241326	0.648046
	H2120	H	0.158207	0.314667	1.064494
	H2121	H	0.217443	0.240376	0.850479
	H2122	H	0.149415	0.343785	0.466258
	H2123	H	0.204852	0.235795	0.647683
	H2124	H	0.151544	0.226567	0.603754
	H2125	H	0.213920	0.290809	0.603695
	H2126	H	0.138814	0.223294	0.894709
	H2127	H	0.201429	0.284631	0.894045
	H2128	H	0.138966	0.221562	0.603727
	H2129	H	0.201329	0.285444	0.603499
	H2130	H	0.151415	0.228292	0.894587
	H2131	H	0.214015	0.289816	0.893744
	Co2132	Co	0.240035	0.311802	0.623546
	Co2133	Co	0.177561	0.249366	0.623157
	Co2134	Co	0.115060	0.186699	0.875681
	Co2135	Co	0.177542	0.249281	0.873943
	C2136	C	0.140418	0.374192	0.920804
	C2137	C	0.191579	0.232526	0.921435
	C2138	C	0.166994	0.283745	0.575692
	C2139	C	0.230876	0.240792	0.576867
	C2140	C	0.166889	0.283484	0.921452
	C2141	C	0.230862	0.240966	0.922166
	C2142	C	0.140380	0.374125	0.575795
	C2143	C	0.191574	0.232409	0.576281
	C2144	C	0.164598	0.232458	0.671557
	C2145	C	0.227112	0.295134	0.671786
	C2146	C	0.126515	0.211385	0.827009
	C2147	C	0.188960	0.274152	0.825995
	C2148	C	0.126398	0.211717	0.672326
	C2149	C	0.188962	0.274209	0.671206
	C2150	C	0.164631	0.232429	0.825678
	C2151	C	0.227087	0.295157	0.825460
	C2152	C	0.143569	0.363904	0.998044
	C2153	C	0.196204	0.231793	0.498645
	C2154	C	0.163822	0.293910	0.998748
	C2155	C	0.226232	0.242471	0.499431
	C2156	C	0.160187	0.230210	0.748727
	C2157	C	0.222646	0.292949	0.748500
	C2158	C	0.130493	0.216572	0.749448
	C2159	C	0.193011	0.279264	0.748672
	C2160	C	0.148732	0.346249	0.998152
	C2161	C	0.203828	0.234247	0.498760
	C2162	C	0.158685	0.311602	0.998731
	C2163	C	0.218543	0.241089	0.499095
	C2164	C	0.152597	0.227535	0.748975
	C2165	C	0.215056	0.290346	0.748576
	C2166	C	0.137845	0.221759	0.749310
	C2167	C	0.200338	0.284385	0.748667
	C2168	C	0.151403	0.337574	1.034891
	C2169	C	0.207617	0.236053	0.916575
	C2170	C	0.156136	0.320589	0.480809
	C2171	C	0.214712	0.239773	0.581835
	C2172	C	0.156221	0.320758	1.035266
	C2173	C	0.214740	0.239268	0.916599
	C2174	C	0.151285	0.337355	0.480906
	C2175	C	0.207579	0.236488	0.581603
	C2176	C	0.148804	0.225910	0.667893
	C2177	C	0.211230	0.289304	0.667670
	C2178	C	0.141588	0.223934	0.830586
	C2179	C	0.204127	0.285924	0.829762
	C2180	C	0.141651	0.223041	0.667892
	C2181	C	0.204070	0.286400	0.667554
	C2182	C	0.148749	0.226784	0.830398
	C2183	C	0.211285	0.288874	0.829671
	N2184	N	0.135868	0.389427	0.950220
	N2185	N	0.184676	0.234318	0.949800
	N2186	N	0.171491	0.268406	0.546420
	N2187	N	0.237712	0.237545	0.548186
	N2188	N	0.171458	0.268243	0.950576
	N2189	N	0.237738	0.237644	0.950916
	N2190	N	0.135893	0.389484	0.546171
	N2191	N	0.184689	0.234268	0.547878
	N2192	N	0.171168	0.235941	0.699837
	N2193	N	0.233674	0.298537	0.700513
	N2194	N	0.120658	0.203371	0.798111
	N2195	N	0.183136	0.266104	0.796644
	N2196	N	0.120593	0.203544	0.701911
	N2197	N	0.183129	0.266195	0.700221
	N2198	N	0.171182	0.235938	0.796668
	N2199	N	0.233655	0.298581	0.796887
	H2200	H	0.140356	0.480048	0.346923
	H2201	H	0.203577	0.433949	0.348350
	H2202	H	0.176980	0.488358	0.151760
	H2203	H	0.228648	0.349208	0.149846
	H2204	H	0.177078	0.489263	0.348117
	H2205	H	0.228517	0.348793	0.348055
	H2206	H	0.140139	0.479578	0.150278
	H2207	H	0.203758	0.434139	0.149834
	H2208	H	0.179865	0.444337	0.098236
	H2209	H	0.242273	0.507915	0.097591
	H2210	H	0.143876	0.426638	0.399001
	H2211	H	0.206525	0.488932	0.400057
	H2212	H	0.144030	0.426107	0.097316
	H2213	H	0.206448	0.488711	0.098377
	H2214	H	0.179791	0.445164	0.401851
	H2215	H	0.242533	0.507192	0.400630
	H2216	H	0.152466	0.480633	0.647927
	H2217	H	0.211515	0.405439	0.516396
	H2218	H	0.164882	0.485577	0.147996
	H2219	H	0.220076	0.376278	0.045719
	H2220	H	0.165024	0.485750	0.648036
	H2221	H	0.220095	0.375853	0.516636
	H2222	H	0.152309	0.480483	0.147267
	H2223	H	0.211450	0.405765	0.045757
	H2224	H	0.168503	0.435520	0.103916
	H2225	H	0.231110	0.497058	0.104615
	H2226	H	0.155829	0.430458	0.394342
	H2227	H	0.218297	0.494566	0.393456
	H2228	H	0.155907	0.430533	0.102984
	H2229	H	0.218551	0.491809	0.104891
	H2230	H	0.168401	0.435528	0.395552
	H2231	H	0.230849	0.499590	0.393736
	Co2232	Co	0.254877	0.533902	0.123751
	Co2233	Co	0.192337	0.471113	0.124737
	Co2234	Co	0.129900	0.408573	0.373199
	Co2235	Co	0.192361	0.471243	0.375279
	C2236	C	0.139049	0.481145	0.421203
	C2237	C	0.202860	0.436687	0.422255
	C2238	C	0.178255	0.487852	0.077420
	C2239	C	0.229478	0.346301	0.075860
	C2240	C	0.178397	0.488485	0.422510
	C2241	C	0.229406	0.346084	0.421603
	C2242	C	0.138915	0.480624	0.076144
	C2243	C	0.202948	0.436904	0.076601
	C2244	C	0.180911	0.446242	0.172854
	C2245	C	0.243350	0.509387	0.171803
	C2246	C	0.142705	0.425758	0.325437
	C2247	C	0.205300	0.488161	0.326442
	C2248	C	0.142776	0.425516	0.171268
	C2249	C	0.205285	0.488009	0.172423
	C2250	C	0.180836	0.446716	0.327638
	C2251	C	0.243429	0.508995	0.326725
	C2252	C	0.143663	0.479208	0.499031
	C2253	C	0.206011	0.426529	-0.000754
	C2254	C	0.173759	0.489009	0.500152
	C2255	C	0.226346	0.356692	-0.001029
	C2256	C	0.176823	0.441445	0.250201
	C2257	C	0.239382	0.504158	0.249077
	C2258	C	0.147183	0.427824	0.248511
	C2259	C	0.209697	0.490360	0.249323
	C2260	C	0.151367	0.480307	0.499598
	C2261	C	0.211170	0.408884	-0.001237
	C2262	C	0.166130	0.486654	0.500000
	C2263	C	0.221182	0.374340	-0.000967
	C2264	C	0.169501	0.436301	0.249791
	C2265	C	0.232046	0.498988	0.249295
	C2266	C	0.154756	0.430496	0.248770
	C2267	C	0.217304	0.493106	0.249048
	C2268	C	0.155167	0.481740	0.582231
	C2269	C	0.213571	0.399415	0.508744
	C2270	C	0.162201	0.484559	0.082129
	C2271	C	0.218386	0.382863	0.025137
	C2272	C	0.162326	0.484815	0.582378
	C2273	C	0.218417	0.382633	0.508830
	C2274	C	0.155060	0.481562	0.081635
	C2275	C	0.213527	0.399649	0.024924
	C2276	C	0.165761	0.434523	0.168177
	C2277	C	0.228340	0.496475	0.168439
	C2278	C	0.158552	0.431681	0.330301
	C2279	C	0.221048	0.495086	0.329784
	C2280	C	0.158587	0.431717	0.167600
	C2281	C	0.221187	0.493658	0.168468
	C2282	C	0.165729	0.434461	0.330815
	C2283	C	0.228191	0.497957	0.329911
	N2284	N	0.132205	0.484690	0.449852
	N2285	N	0.198346	0.451968	0.451894
	N2286	N	0.185138	0.485999	0.048960
	N2287	N	0.233998	0.331042	0.046675
	N2288	N	0.185277	0.486338	0.451250
	N2289	N	0.233958	0.330885	0.450827
	N2290	N	0.132061	0.484504	0.047180
	N2291	N	0.198400	0.452190	0.047623
	N2292	N	0.186717	0.454371	0.201850
	N2293	N	0.249236	0.517283	0.201110
	N2294	N	0.136171	0.422205	0.296399
	N2295	N	0.198737	0.484552	0.298114
	N2296	N	0.136223	0.422061	0.199587
	N2297	N	0.198741	0.484485	0.201359
	N2298	N	0.186691	0.454596	0.298233
	N2299	N	0.249252	0.517152	0.297649
	H2300	H	0.140140	0.480205	0.846647
	H2301	H	0.203634	0.434191	0.848858
	H2302	H	0.177060	0.488785	0.652191
	H2303	H	0.228768	0.349237	0.648909
	H2304	H	0.177016	0.489063	0.847694
	H2305	H	0.228522	0.348966	0.848377
	H2306	H	0.140240	0.479797	0.650925
	H2307	H	0.203866	0.434307	0.650383
	H2308	H	0.179932	0.444500	0.598630
	H2309	H	0.242254	0.507654	0.597354
	H2310	H	0.143941	0.426231	0.898569
	H2311	H	0.206414	0.488926	0.900828
	H2312	H	0.143989	0.426196	0.598055
	H2313	H	0.206505	0.488667	0.600083
	H2314	H	0.179823	0.444781	0.901025
	H2315	H	0.242468	0.507040	0.901160
	H2316	H	0.152422	0.480283	0.850275
	H2317	H	0.212284	0.407145	0.952062
	H2318	H	0.165052	0.485785	0.351495
	H2319	H	0.220827	0.377590	0.480396
	H2320	H	0.164957	0.485535	0.851111
	H2321	H	0.220827	0.377540	0.952363
	H2322	H	0.152524	0.480770	0.351116
	H2323	H	0.212278	0.407292	0.480982
	H2324	H	0.168443	0.436033	0.603519
	H2325	H	0.230820	0.499860	0.895286
	H2326	H	0.155900	0.430217	0.893957
	H2327	H	0.218438	0.491858	0.604598
	H2328	H	0.155882	0.431101	0.602912
	H2329	H	0.218268	0.494612	0.895674
	H2330	H	0.168477	0.435276	0.894046
	H2331	H	0.231022	0.496913	0.604372
	Co2332	Co	0.254825	0.533869	0.624132
	Co2333	Co	0.192393	0.470950	0.624861
	Co2334	Co	0.129828	0.408517	0.873521
	Co2335	Co	0.192280	0.471295	0.875186
	C2336	C	0.138909	0.481080	0.921132
	C2337	C	0.202885	0.436950	0.922496
	C2338	C	0.178398	0.488099	0.577838
	C2339	C	0.229529	0.346307	0.575561
	C2340	C	0.178261	0.488174	0.922216
	C2341	C	0.229379	0.346170	0.921885
	C2342	C	0.138986	0.480949	0.576300
	C2343	C	0.202992	0.436825	0.576389
	C2344	C	0.180940	0.446207	0.672147
	C2345	C	0.243322	0.509244	0.671771
	C2346	C	0.142739	0.425506	0.824836
	C2347	C	0.205221	0.488163	0.827327
	C2348	C	0.142769	0.425475	0.671093
	C2349	C	0.205261	0.488000	0.673234
	C2350	C	0.180868	0.446517	0.826947
	C2351	C	0.243432	0.508973	0.826519
	C2352	C	0.143504	0.478978	0.998461
	C2353	C	0.206016	0.426391	0.499235
	C2354	C	0.173668	0.488637	0.999695
	C2355	C	0.226366	0.356608	0.498811
	C2356	C	0.176842	0.441377	0.749569
	C2357	C	0.239309	0.504169	0.749374
	C2358	C	0.147208	0.427773	0.748128
	C2359	C	0.209674	0.490386	0.750450
	C2360	C	0.151253	0.480038	0.998572
	C2361	C	0.211184	0.408772	0.498882
	C2362	C	0.166009	0.486364	0.999620
	C2363	C	0.221205	0.374299	0.499079
	C2364	C	0.169499	0.436320	0.749174
	C2365	C	0.231970	0.499073	0.749722
	C2366	C	0.154765	0.430491	0.748359
	C2367	C	0.217263	0.493133	0.750175
	C2368	C	0.155099	0.481478	0.916148
	C2369	C	0.213959	0.400343	0.972650
	C2370	C	0.162357	0.484799	0.417225
	C2371	C	0.218836	0.383635	0.488802
	C2372	C	0.162243	0.484498	0.916791
	C2373	C	0.218828	0.383605	0.972719
	C2374	C	0.155190	0.481791	0.417186
	C2375	C	0.213975	0.400398	0.488617
	C2376	C	0.165735	0.434768	0.667609
	C2377	C	0.228151	0.498127	0.831139
	C2378	C	0.158569	0.431507	0.829474
	C2379	C	0.221115	0.493570	0.668802
	C2380	C	0.158566	0.431952	0.667424
	C2381	C	0.220997	0.495230	0.831396
	C2382	C	0.165738	0.434378	0.830166
	C2383	C	0.228263	0.496499	0.668574
	N2384	N	0.132063	0.484790	0.950036
	N2385	N	0.198369	0.452238	0.952079
	N2386	N	0.185277	0.486088	0.549200
	N2387	N	0.234041	0.331038	0.546406
	N2388	N	0.185155	0.486227	0.950946
	N2389	N	0.233938	0.330955	0.950788
	N2390	N	0.132173	0.484577	0.547099
	N2391	N	0.198428	0.452068	0.547480
	N2392	N	0.186779	0.454179	0.701545
	N2393	N	0.249221	0.517072	0.700806
	N2394	N	0.136204	0.421940	0.796360
	N2395	N	0.198697	0.484503	0.798303
	N2396	N	0.136216	0.421932	0.699656
	N2397	N	0.198717	0.484421	0.701865
	N2398	N	0.186737	0.454362	0.797908
	N2399	N	0.249285	0.516926	0.797093
	H2400	H	0.135497	0.573922	0.347326
	H2401	H	0.202648	0.541789	0.349139
	H2402	H	0.172328	0.582580	0.152118
	H2403	H	0.239631	0.551972	0.151716
	H2404	H	0.172333	0.582806	0.348767
	H2405	H	0.239464	0.551177	0.347265
	H2406	H	0.135504	0.573388	0.151905
	H2407	H	0.202822	0.543137	0.152019
	H2408	H	0.174584	0.538393	0.098737
	H2409	H	0.236968	0.601446	0.097717
	H2410	H	0.137892	0.524076	0.400584
	H2411	H	0.200663	0.585804	0.402327
	H2412	H	0.138084	0.523243	0.097015
	H2413	H	0.200405	0.586994	0.098746
	H2414	H	0.174475	0.538855	0.402451
	H2415	H	0.237126	0.601013	0.401559
	H2416	H	0.147551	0.576391	0.351827
	H2417	H	0.215074	0.541952	0.648659
	H2418	H	0.160171	0.581621	-0.147672
	H2419	H	0.227687	0.547177	0.147800
	H2420	H	0.160088	0.581526	0.352380
	H2421	H	0.227610	0.547302	0.648522
	H2422	H	0.147628	0.576350	-0.148321
	H2423	H	0.215147	0.542053	0.148598
	H2424	H	0.162665	0.533147	0.101335
	H2425	H	0.225140	0.594719	0.101426
	H2426	H	0.149945	0.529371	0.398303
	H2427	H	0.212382	0.592697	0.398911
	H2428	H	0.149994	0.529316	0.100570
	H2429	H	0.212455	0.591036	0.101443
	H2430	H	0.162589	0.533028	0.399113
	H2431	H	0.225065	0.596366	0.398385
	Co2432	Co	0.249969	0.625032	0.123570
	Co2433	Co	0.187523	0.562621	0.125476
	Co2434	Co	0.125039	0.499946	0.373840
	Co2435	Co	0.187502	0.562556	0.376816
	C2436	C	0.134186	0.574509	0.421972
	C2437	C	0.201431	0.543133	0.423549
	C2438	C	0.173572	0.581581	0.077756
	C2439	C	0.240896	0.551038	0.076909
	C2440	C	0.173516	0.581599	0.423361
	C2441	C	0.240790	0.550739	0.421887
	C2442	C	0.134185	0.574142	0.077112
	C2443	C	0.201534	0.543716	0.078411
	C2444	C	0.175693	0.539937	0.172859
	C2445	C	0.238081	0.602712	0.171905
	C2446	C	0.136898	0.522436	0.326282
	C2447	C	0.199469	0.584567	0.328033
	C2448	C	0.136966	0.522132	0.171647
	C2449	C	0.199345	0.585159	0.173243
	C2450	C	0.175611	0.540267	0.328083
	C2451	C	0.238170	0.602418	0.326530
	C2452	C	0.138767	0.573686	0.499608
	C2453	C	0.206144	0.541609	0.000904
	C2454	C	0.168882	0.583394	0.500579
	C2455	C	0.236257	0.551593	-0.000481
	C2456	C	0.171366	0.536420	0.250251
	C2457	C	0.233812	0.598991	0.249329
	C2458	C	0.141242	0.525902	0.249067
	C2459	C	0.203698	0.588479	0.250531
	C2460	C	0.146434	0.576004	0.499727
	C2461	C	0.213871	0.542763	0.000397
	C2462	C	0.161163	0.582317	0.500308
	C2463	C	0.228614	0.549235	-0.000311
	C2464	C	0.163787	0.533258	0.250044
	C2465	C	0.226244	0.595736	0.249848
	C2466	C	0.148806	0.529118	0.249228
	C2467	C	0.211288	0.591616	0.250234
	C2468	C	0.150241	0.577644	0.417425
	C2469	C	0.217705	0.543659	0.582923
	C2470	C	0.157446	0.580525	-0.082398
	C2471	C	0.224902	0.546770	0.082297
	C2472	C	0.157375	0.580629	0.417823
	C2473	C	0.224854	0.546718	0.582724
	C2474	C	0.150280	0.577552	-0.082553
	C2475	C	0.217763	0.543683	0.082604
	C2476	C	0.159935	0.532281	0.167058
	C2477	C	0.222399	0.594255	0.167339
	C2478	C	0.152667	0.530130	0.332220
	C2479	C	0.215127	0.593096	0.332883
	C2480	C	0.152694	0.530166	0.166801
	C2481	C	0.215156	0.592177	0.167365
	C2482	C	0.159921	0.532138	0.332738
	C2483	C	0.222365	0.595126	0.332567
	N2484	N	0.127297	0.576333	0.450078
	N2485	N	0.194604	0.546910	0.452552
	N2486	N	0.180430	0.577983	0.049280
	N2487	N	0.247772	0.548993	0.047965
	N2488	N	0.180376	0.577985	0.452485
	N2489	N	0.247694	0.548883	0.450481
	N2490	N	0.127306	0.576154	0.048219
	N2491	N	0.194681	0.547157	0.049628
	N2492	N	0.181910	0.546115	0.202188
	N2493	N	0.244331	0.608642	0.200498
	N2494	N	0.130702	0.516284	0.297132
	N2495	N	0.193202	0.578678	0.299228
	N2496	N	0.130722	0.516209	0.200115
	N2497	N	0.193118	0.579059	0.202270
	N2498	N	0.181851	0.546267	0.299317
	N2499	N	0.244378	0.608499	0.297558
	H2500	H	0.135529	0.573745	0.847901
	H2501	H	0.202755	0.541605	0.848858
	H2502	H	0.172203	0.582173	0.652754
	H2503	H	0.239534	0.551956	0.651608
	H2504	H	0.172391	0.582571	0.848754
	H2505	H	0.239545	0.551172	0.847447
	H2506	H	0.135456	0.573276	0.651086
	H2507	H	0.202795	0.542924	0.653149
	H2508	H	0.174627	0.538520	0.598236
	H2509	H	0.236849	0.601662	0.597862
	H2510	H	0.137936	0.524236	0.900682
	H2511	H	0.200566	0.585850	0.902788
	H2512	H	0.138115	0.523337	0.596877
	H2513	H	0.200371	0.586816	0.599819
	H2514	H	0.174520	0.538799	0.901801
	H2515	H	0.237124	0.600761	0.901103
	H2516	H	0.147551	0.576962	1.147853
	H2517	H	0.214879	0.544114	0.852006
	H2518	H	0.159990	0.582169	0.648054
	H2519	H	0.227369	0.549265	0.351357
	H2520	H	0.160083	0.582126	1.147464
	H2521	H	0.227389	0.549424	0.851304
	H2522	H	0.147431	0.577084	0.647534
	H2523	H	0.214825	0.543938	0.352001
	H2524	H	0.162626	0.533338	0.601094
	H2525	H	0.225084	0.594664	0.601611
	H2526	H	0.149944	0.529030	0.898090
	H2527	H	0.212336	0.592936	0.899696
	H2528	H	0.149946	0.529792	0.600536
	H2529	H	0.212438	0.591111	0.602534
	H2530	H	0.162604	0.532807	0.898564
	H2531	H	0.225010	0.596463	0.898961
	Co2532	Co	0.249983	0.624975	0.623610
	Co2533	Co	0.187489	0.562701	0.625633
	Co2534	Co	0.124913	0.500207	0.873623
	Co2535	Co	0.187541	0.562218	0.876124
	C2536	C	0.134206	0.574307	0.922000
	C2537	C	0.201502	0.543073	0.923575
	C2538	C	0.173471	0.581535	0.578318
	C2539	C	0.240830	0.551022	0.577210
	C2540	C	0.173601	0.581450	0.922959
	C2541	C	0.240846	0.550731	0.921686
	C2542	C	0.134156	0.574112	0.576773
	C2543	C	0.201485	0.543740	0.578248
	C2544	C	0.175664	0.539999	0.673025
	C2545	C	0.238010	0.602878	0.672234
	C2546	C	0.136875	0.522540	0.826053
	C2547	C	0.199435	0.584627	0.828434
	C2548	C	0.136953	0.522238	0.671202
	C2549	C	0.199351	0.585161	0.673779
	C2550	C	0.175613	0.540122	0.827552
	C2551	C	0.238172	0.602323	0.826974
	C2552	C	0.138822	0.573615	0.999792
	C2553	C	0.206103	0.541587	0.500838
	C2554	C	0.168960	0.583320	1.000169
	C2555	C	0.236196	0.551518	0.499787
	C2556	C	0.171349	0.536459	0.749972
	C2557	C	0.233784	0.599010	0.749964
	C2558	C	0.141214	0.525985	0.748727
	C2559	C	0.203685	0.588553	0.751172
	C2560	C	0.146468	0.575958	0.999703
	C2561	C	0.213830	0.542686	0.500448
	C2562	C	0.161241	0.582224	0.999929
	C2563	C	0.228558	0.549149	0.500045
	C2564	C	0.163770	0.533244	0.749692
	C2565	C	0.226223	0.595738	0.750498
	C2566	C	0.148797	0.529214	0.749247
	C2567	C	0.211235	0.591786	0.751063
	C2568	C	0.150221	0.577999	1.081874
	C2569	C	0.217615	0.544743	0.917592
	C2570	C	0.157325	0.580958	0.582390
	C2571	C	0.224733	0.547701	0.417287
	C2572	C	0.157389	0.580889	1.082111
	C2573	C	0.224757	0.547928	0.917266
	C2574	C	0.150178	0.577965	0.582246
	C2575	C	0.217572	0.544668	0.417580
	C2576	C	0.159902	0.532381	0.666830
	C2577	C	0.222385	0.594236	0.667942
	C2578	C	0.152649	0.530061	0.832130
	C2579	C	0.215067	0.593284	0.833626
	C2580	C	0.152661	0.530373	0.666754
	C2581	C	0.215138	0.592264	0.668284
	C2582	C	0.159887	0.532135	0.832587
	C2583	C	0.222320	0.595247	0.833133
	N2584	N	0.127312	0.576263	0.950145
	N2585	N	0.194657	0.546787	0.952364
	N2586	N	0.180342	0.577923	0.549890
	N2587	N	0.247717	0.549060	0.548349
	N2588	N	0.180443	0.577799	0.952057
	N2589	N	0.247747	0.548801	0.950045
	N2590	N	0.127271	0.576123	0.547994
	N2591	N	0.194657	0.547223	0.549823
	N2592	N	0.181894	0.546078	0.701814
	N2593	N	0.244272	0.608792	0.700699
	N2594	N	0.130649	0.516429	0.796880
	N2595	N	0.193211	0.578652	0.799729
	N2596	N	0.130698	0.516264	0.699743
	N2597	N	0.193150	0.578960	0.702714
	N2598	N	0.181856	0.546120	0.799032
	N2599	N	0.244386	0.608416	0.797779
	H2600	H	0.146232	0.775817	0.349436
	H2601	H	0.197881	0.635860	0.348539
	H2602	H	0.171239	0.691013	0.152128
	H2603	H	0.234843	0.645456	0.150641
	H2604	H	0.171117	0.690543	0.348969
	H2605	H	0.234693	0.644805	0.347620
	H2606	H	0.146531	0.776467	0.151978
	H2607	H	0.198031	0.636524	0.153058
	H2608	H	0.168487	0.636163	0.099630
	H2609	H	0.230947	0.698976	0.098938
	H2610	H	0.132494	0.617760	0.401087
	H2611	H	0.195253	0.679770	0.402330
	H2612	H	0.132557	0.617577	0.097864
	H2613	H	0.194923	0.680989	0.099481
	H2614	H	0.168450	0.636187	0.401080
	H2615	H	0.231150	0.697884	0.400699
	H2616	H	0.154550	0.748364	0.454324
	H2617	H	0.209888	0.640242	0.351765
	H2618	H	0.163100	0.718725	-0.126691
	H2619	H	0.222711	0.643210	0.147571
	H2620	H	0.163153	0.718827	0.454519
	H2621	H	0.222446	0.645515	0.351671
	H2622	H	0.154517	0.748216	-0.125935
	H2623	H	0.210169	0.638314	0.148452
	H2624	H	0.156507	0.632340	0.105504
	H2625	H	0.218988	0.696144	0.394988
	H2626	H	0.143995	0.626253	0.394099
	H2627	H	0.206706	0.687384	0.104771
	H2628	H	0.143936	0.627128	0.105009
	H2629	H	0.206384	0.691001	0.395101
	H2630	H	0.156565	0.631195	0.394826
	H2631	H	0.219268	0.692506	0.104859
	Co2632	Co	0.245173	0.716085	0.123911
	Co2633	Co	0.182634	0.653774	0.125876
	Co2634	Co	0.120071	0.591223	0.374272
	Co2635	Co	0.182623	0.653695	0.376432
	C2636	C	0.145507	0.778821	0.423000
	C2637	C	0.196605	0.636630	0.423198
	C2638	C	0.172071	0.688136	0.078169
	C2639	C	0.236049	0.644253	0.076207
	C2640	C	0.171979	0.687952	0.423162
	C2641	C	0.235994	0.643946	0.421868
	C2642	C	0.145654	0.779000	0.077878
	C2643	C	0.196708	0.637046	0.078593
	C2644	C	0.169715	0.636895	0.173427
	C2645	C	0.232209	0.699416	0.172597
	C2646	C	0.131491	0.616158	0.326809
	C2647	C	0.194135	0.678247	0.328344
	C2648	C	0.131543	0.615919	0.172216
	C2649	C	0.193969	0.678882	0.173538
	C2650	C	0.169694	0.636832	0.327720
	C2651	C	0.232312	0.698889	0.326737
	C2652	C	0.148689	0.768508	0.500050
	C2653	C	0.201313	0.636079	0.000852
	C2654	C	0.168939	0.698551	0.499960
	C2655	C	0.231413	0.645857	-0.001018
	C2656	C	0.165268	0.634573	0.250275
	C2657	C	0.227802	0.696953	0.249752
	C2658	C	0.135562	0.621043	0.249349
	C2659	C	0.198132	0.683595	0.250675
	C2660	C	0.153803	0.750794	0.499679
	C2661	C	0.208935	0.638458	0.000394
	C2662	C	0.163777	0.716182	0.499733
	C2663	C	0.223697	0.644730	-0.000504
	C2664	C	0.157661	0.631893	0.250179
	C2665	C	0.220229	0.694313	0.249938
	C2666	C	0.142912	0.626025	0.249341
	C2667	C	0.205472	0.688612	0.250042
	C2668	C	0.156374	0.741932	0.474330
	C2669	C	0.212642	0.640818	0.417427
	C2670	C	0.161264	0.725097	-0.070358
	C2671	C	0.219953	0.642614	0.082028
	C2672	C	0.161243	0.725159	0.474265
	C2673	C	0.219797	0.643871	0.417447
	C2674	C	0.156386	0.741816	-0.070239
	C2675	C	0.212794	0.639649	0.082527
	C2676	C	0.153837	0.630921	0.169335
	C2677	C	0.216344	0.694110	0.330936
	C2678	C	0.146709	0.627497	0.330320
	C2679	C	0.209323	0.689263	0.168925
	C2680	C	0.146676	0.628075	0.168809
	C2681	C	0.209164	0.691319	0.331000
	C2682	C	0.153873	0.630359	0.330675
	C2683	C	0.216501	0.692100	0.168899
	N2684	N	0.141025	0.794121	0.452550
	N2685	N	0.189728	0.638618	0.452079
	N2686	N	0.176612	0.672866	0.049008
	N2687	N	0.242889	0.640477	0.047522
	N2688	N	0.176538	0.672747	0.452740
	N2689	N	0.242845	0.640372	0.450331
	N2690	N	0.141074	0.794117	0.048319
	N2691	N	0.189817	0.638919	0.050235
	N2692	N	0.176256	0.640401	0.202314
	N2693	N	0.238768	0.702785	0.201046
	N2694	N	0.125640	0.608121	0.297472
	N2695	N	0.188287	0.670365	0.299315
	N2696	N	0.125663	0.608053	0.201212
	N2697	N	0.188170	0.670745	0.202969
	N2698	N	0.176238	0.640429	0.299069
	N2699	N	0.238845	0.702451	0.297560
	H2700	H	0.146186	0.775499	0.850018
	H2701	H	0.197955	0.635549	0.848802
	H2702	H	0.171388	0.691242	0.650986
	H2703	H	0.234850	0.645656	0.651743
	H2704	H	0.171313	0.691176	0.849703
	H2705	H	0.234762	0.644660	0.847311
	H2706	H	0.146534	0.776422	0.650934
	H2707	H	0.197983	0.636182	0.652988
	H2708	H	0.168556	0.636164	0.600361
	H2709	H	0.230985	0.698969	0.598416
	H2710	H	0.132533	0.617861	0.900516
	H2711	H	0.195184	0.680026	0.902420
	H2712	H	0.132669	0.617731	0.597329
	H2713	H	0.195028	0.680308	0.598794
	H2714	H	0.168469	0.636319	0.901719
	H2715	H	0.231199	0.697589	0.899777
	H2716	H	0.154520	0.748276	1.127760
	H2717	H	0.209859	0.640477	0.852520
	H2718	H	0.163010	0.718520	0.545416
	H2719	H	0.222684	0.643600	0.648492
	H2720	H	0.163136	0.718789	1.127922
	H2721	H	0.222415	0.645510	0.851937
	H2722	H	0.154448	0.748111	0.545744
	H2723	H	0.210116	0.638383	0.648473
	H2724	H	0.156581	0.632307	0.605984
	H2725	H	0.219206	0.693059	0.604736
	H2726	H	0.143990	0.626618	0.894423
	H2727	H	0.206472	0.690786	0.894617
	H2728	H	0.143977	0.627182	0.605817
	H2729	H	0.206627	0.688080	0.605227
	H2730	H	0.156582	0.631699	0.895013
	H2731	H	0.219088	0.695818	0.894317
	Co2732	Co	0.245211	0.716162	0.624367
	Co2733	Co	0.182656	0.653914	0.625721
	Co2734	Co	0.120171	0.591270	0.873593
	Co2735	Co	0.182682	0.653698	0.876880
	C2736	C	0.145471	0.778541	0.923688
	C2737	C	0.196674	0.636556	0.923392
	C2738	C	0.172107	0.688295	0.577101
	C2739	C	0.236067	0.644489	0.577048
	C2740	C	0.172107	0.688198	0.923495
	C2741	C	0.236027	0.643825	0.921564
	C2742	C	0.145656	0.779086	0.577336
	C2743	C	0.196658	0.636884	0.578287
	C2744	C	0.169764	0.636942	0.674016
	C2745	C	0.232240	0.699429	0.672083
	C2746	C	0.131546	0.616132	0.826253
	C2747	C	0.194186	0.678301	0.828134
	C2748	C	0.131606	0.616120	0.671516
	C2749	C	0.194091	0.678600	0.673384
	C2750	C	0.169722	0.637067	0.828018
	C2751	C	0.232354	0.698741	0.826163
	C2752	C	0.148678	0.768333	1.000788
	C2753	C	0.201252	0.636117	0.500514
	C2754	C	0.168999	0.698574	1.000835
	C2755	C	0.231409	0.646017	0.499748
	C2756	C	0.165287	0.634795	0.750854
	C2757	C	0.227873	0.696980	0.749284
	C2758	C	0.135635	0.621167	0.749230
	C2759	C	0.198186	0.683419	0.750619
	C2760	C	0.153825	0.750691	1.000993
	C2761	C	0.208910	0.638456	0.500063
	C2762	C	0.163848	0.716233	1.000798
	C2763	C	0.223681	0.644860	0.500089
	C2764	C	0.157700	0.632053	0.750489
	C2765	C	0.220275	0.694397	0.749580
	C2766	C	0.142970	0.626218	0.749802
	C2767	C	0.205531	0.688540	0.750176
	C2768	C	0.156393	0.741855	1.072039
	C2769	C	0.212619	0.640948	0.917921
	C2770	C	0.161182	0.725045	0.525451
	C2771	C	0.219925	0.642852	0.582803
	C2772	C	0.161271	0.725125	1.072067
	C2773	C	0.219769	0.644013	0.917486
	C2774	C	0.156322	0.741822	0.525271
	C2775	C	0.212760	0.639842	0.582574
	C2776	C	0.153893	0.631025	0.669624
	C2777	C	0.216478	0.692519	0.668852
	C2778	C	0.146725	0.627783	0.830756
	C2779	C	0.209261	0.691121	0.830889
	C2780	C	0.146724	0.628175	0.669388
	C2781	C	0.209331	0.689690	0.669141
	C2782	C	0.153893	0.630646	0.830902
	C2783	C	0.216418	0.693976	0.830599
	N2784	N	0.140964	0.793838	0.952962
	N2785	N	0.189791	0.638605	0.952139
	N2786	N	0.176616	0.672963	0.548192
	N2787	N	0.242903	0.640688	0.547643
	N2788	N	0.176624	0.672877	0.953029
	N2789	N	0.242881	0.640267	0.950161
	N2790	N	0.141096	0.794285	0.548179
	N2791	N	0.189758	0.638779	0.550065
	N2792	N	0.176305	0.640493	0.702906
	N2793	N	0.238827	0.702678	0.700381
	N2794	N	0.125710	0.608207	0.796564
	N2795	N	0.188289	0.670466	0.799269
	N2796	N	0.125760	0.608129	0.700378
	N2797	N	0.188251	0.670620	0.702861
	N2798	N	0.176278	0.640560	0.799541
	N2799	N	0.238900	0.702350	0.797388
	H2800	H	0.145356	0.882927	0.348249
	H2801	H	0.208893	0.838279	0.349095
	H2802	H	0.182231	0.893192	0.151732
	H2803	H	0.233899	0.753424	0.149393
	H2804	H	0.182150	0.892793	0.347298
	H2805	H	0.233747	0.753156	0.348498
	H2806	H	0.145441	0.882992	0.152463
	H2807	H	0.209012	0.838460	0.149854
	H2808	H	0.184964	0.849080	0.098233
	H2809	H	0.247534	0.911492	0.098640
	H2810	H	0.149194	0.830241	0.401029
	H2811	H	0.211564	0.892780	0.400397
	H2812	H	0.149103	0.830599	0.099897
	H2813	H	0.211672	0.892657	0.098592
	H2814	H	0.185079	0.848642	0.401057
	H2815	H	0.247521	0.911185	0.401843
	H2816	H	0.157604	0.884510	0.350879
	H2817	H	0.217627	0.811764	0.371947
	H2818	H	0.170197	0.889299	0.148186
	H2819	H	0.225799	0.781093	0.031684
	H2820	H	0.170099	0.889812	0.350647
	H2821	H	0.226184	0.782187	0.371503
	H2822	H	0.157686	0.883730	0.148192
	H2823	H	0.217206	0.810684	0.032448
	H2824	H	0.173611	0.840047	0.395182
	H2825	H	0.236133	0.901711	0.395520
	H2826	H	0.161117	0.834045	0.104846
	H2827	H	0.223482	0.897597	0.103658
	H2828	H	0.161008	0.834921	0.395739
	H2829	H	0.223556	0.896465	0.395334
	H2830	H	0.173673	0.839133	0.105023
	H2831	H	0.236060	0.902681	0.104095
	Co2832	Co	0.259985	0.937800	0.125428
	Co2833	Co	0.197458	0.875406	0.123826
	Co2834	Co	0.134941	0.813177	0.376078
	Co2835	Co	0.197493	0.875243	0.374642
	C2836	C	0.144138	0.883908	0.422811
	C2837	C	0.208120	0.841117	0.422693
	C2838	C	0.183480	0.892490	0.077086
	C2839	C	0.234650	0.750496	0.075709
	C2840	C	0.183446	0.892166	0.421955
	C2841	C	0.234593	0.750305	0.422664
	C2842	C	0.144165	0.883930	0.078096
	C2843	C	0.208157	0.841255	0.076180
	C2844	C	0.186022	0.850641	0.172353
	C2845	C	0.248572	0.912926	0.173277
	C2846	C	0.147918	0.829722	0.327564
	C2847	C	0.210391	0.892183	0.326392
	C2848	C	0.147869	0.829862	0.173573
	C2849	C	0.210427	0.892084	0.172409
	C2850	C	0.186090	0.850399	0.327083
	C2851	C	0.248521	0.913081	0.327621
	C2852	C	0.148776	0.882442	0.500289
	C2853	C	0.211219	0.830703	-0.000804
	C2854	C	0.178846	0.892931	0.499765
	C2855	C	0.231474	0.760793	-0.001250
	C2856	C	0.182012	0.845471	0.249913
	C2857	C	0.244504	0.908050	0.250459
	C2858	C	0.152342	0.831859	0.250526
	C2859	C	0.214829	0.894298	0.249349
	C2860	C	0.156487	0.883816	0.500160
	C2861	C	0.216348	0.812983	-0.000845
	C2862	C	0.171197	0.890499	0.499794
	C2863	C	0.226324	0.778462	-0.001013
	C2864	C	0.174672	0.840304	0.250035
	C2865	C	0.237161	0.902880	0.249945
	C2866	C	0.159955	0.834365	0.250276
	C2867	C	0.222421	0.897011	0.249446
	C2868	C	0.160278	0.885577	0.417038
	C2869	C	0.219239	0.804818	0.427855
	C2870	C	0.167471	0.888428	0.082309
	C2871	C	0.223845	0.787407	0.017355
	C2872	C	0.167406	0.888774	0.416830
	C2873	C	0.224099	0.788046	0.427867
	C2874	C	0.160353	0.885168	0.082371
	C2875	C	0.218999	0.804223	0.017431
	C2876	C	0.170890	0.838768	0.331353
	C2877	C	0.233391	0.900860	0.331326
	C2878	C	0.163794	0.835335	0.169059
	C2879	C	0.226214	0.898438	0.168056
	C2880	C	0.163737	0.835885	0.331483
	C2881	C	0.226233	0.897990	0.330964
	C2882	C	0.170938	0.838235	0.168860
	C2883	C	0.233365	0.901313	0.168317
	N2884	N	0.137261	0.887234	0.451680
	N2885	N	0.203572	0.856400	0.451978
	N2886	N	0.190372	0.890494	0.048486
	N2887	N	0.239146	0.735137	0.046589
	N2888	N	0.190338	0.890228	0.450512
	N2889	N	0.239111	0.735064	0.451923
	N2890	N	0.137314	0.887244	0.049539
	N2891	N	0.203592	0.856473	0.046991
	N2892	N	0.191879	0.858633	0.201372
	N2893	N	0.254421	0.920905	0.202318
	N2894	N	0.141320	0.826493	0.299209
	N2895	N	0.203829	0.888760	0.297626
	N2896	N	0.141287	0.826522	0.202386
	N2897	N	0.203842	0.888690	0.201128
	N2898	N	0.191922	0.858461	0.297535
	N2899	N	0.254405	0.920979	0.298889
	H2900	H	0.145384	0.882735	0.848409
	H2901	H	0.208879	0.838107	0.848409
	H2902	H	0.182154	0.892934	0.651602
	H2903	H	0.233749	0.753235	0.650640
	H2904	H	0.182200	0.892824	0.847283
	H2905	H	0.233629	0.752825	0.848562
	H2906	H	0.145429	0.883208	0.651986
	H2907	H	0.208858	0.838292	0.650545
	H2908	H	0.184968	0.849145	0.598531
	H2909	H	0.247680	0.911368	0.598557
	H2910	H	0.149234	0.830069	0.902207
	H2911	H	0.211590	0.893175	0.899925
	H2912	H	0.149102	0.831106	0.600413
	H2913	H	0.211612	0.892930	0.599316
	H2914	H	0.185166	0.848505	0.901808
	H2915	H	0.247446	0.911397	0.901461
	H2916	H	0.157588	0.884602	0.851116
	H2917	H	0.216946	0.810347	0.967030
	H2918	H	0.170202	0.889416	0.648104
	H2919	H	0.225072	0.779802	0.627318
	H2920	H	0.170072	0.889905	0.851047
	H2921	H	0.225465	0.780671	0.967135
	H2922	H	0.157645	0.884036	0.648639
	H2923	H	0.216521	0.809399	0.626658
	H2924	H	0.173656	0.839662	0.604179
	H2925	H	0.236084	0.902887	0.603278
	H2926	H	0.161124	0.834682	0.896492
	H2927	H	0.223593	0.896709	0.894899
	H2928	H	0.161129	0.834481	0.604389
	H2929	H	0.223500	0.897748	0.603454
	H2930	H	0.173706	0.839669	0.896425
	H2931	H	0.236177	0.901780	0.895117
	Co2932	Co	0.260047	0.937774	0.625660
	Co2933	Co	0.197491	0.875344	0.624438
	Co2934	Co	0.134997	0.813194	0.876192
	Co2935	Co	0.197531	0.875425	0.874673
	C2936	C	0.144165	0.883973	0.923083
	C2937	C	0.208081	0.841062	0.922173
	C2938	C	0.183466	0.892365	0.576948
	C2939	C	0.234586	0.750326	0.576995
	C2940	C	0.183453	0.892207	0.922017
	C2941	C	0.234510	0.750127	0.921727
	C2942	C	0.144145	0.884082	0.577339
	C2943	C	0.208101	0.841087	0.576990
	C2944	C	0.186056	0.850703	0.672764
	C2945	C	0.248642	0.912980	0.672863
	C2946	C	0.147972	0.829742	0.828329
	C2947	C	0.210407	0.892420	0.826440
	C2948	C	0.147907	0.830224	0.674352
	C2949	C	0.210377	0.892376	0.672536
	C2950	C	0.186173	0.850346	0.827508
	C2951	C	0.248545	0.913052	0.827673
	C2952	C	0.148775	0.882299	1.000699
	C2953	C	0.211207	0.830718	0.499685
	C2954	C	0.178873	0.893013	0.999870
	C2955	C	0.231508	0.760766	0.499818
	C2956	C	0.182057	0.845470	0.750313
	C2957	C	0.244529	0.908113	0.749969
	C2958	C	0.152388	0.832148	0.751263
	C2959	C	0.214824	0.894630	0.749332
	C2960	C	0.156499	0.883762	1.000115
	C2961	C	0.216355	0.813066	0.499294
	C2962	C	0.171236	0.890512	0.999762
	C2963	C	0.226365	0.778505	0.499470
	C2964	C	0.174738	0.840321	0.750389
	C2965	C	0.237171	0.903013	0.749400
	C2966	C	0.159985	0.834657	0.750757
	C2967	C	0.222416	0.897328	0.749144
	C2968	C	0.160275	0.885555	0.917221
	C2969	C	0.218843	0.804004	0.981165
	C2970	C	0.167446	0.888500	0.582543
	C2971	C	0.223490	0.786714	0.570776
	C2972	C	0.167411	0.888729	0.917067
	C2973	C	0.223689	0.787204	0.981123
	C2974	C	0.160317	0.885284	0.582729
	C2975	C	0.218632	0.803473	0.570537
	C2976	C	0.170971	0.838477	0.669038
	C2977	C	0.233380	0.901526	0.667753
	C2978	C	0.163824	0.835775	0.831897
	C2979	C	0.226261	0.898173	0.830525
	C2980	C	0.163802	0.835696	0.669121
	C2981	C	0.226217	0.898723	0.667773
	C2982	C	0.170987	0.838642	0.831996
	C2983	C	0.233423	0.900979	0.830769
	N2984	N	0.137311	0.887344	0.951857
	N2985	N	0.203561	0.856321	0.951234
	N2986	N	0.190337	0.890281	0.548338
	N2987	N	0.239108	0.735068	0.547743
	N2988	N	0.190365	0.890309	0.950434
	N2989	N	0.239073	0.734950	0.951212
	N2990	N	0.137272	0.887265	0.549103
	N2991	N	0.203553	0.856383	0.547696
	N2992	N	0.191914	0.858589	0.701747
	N2993	N	0.254491	0.920887	0.702652
	N2994	N	0.141412	0.826369	0.799585
	N2995	N	0.203843	0.888943	0.797868
	N2996	N	0.141356	0.826684	0.702776
	N2997	N	0.203804	0.888955	0.701231
	N2998	N	0.191986	0.858419	0.797896
	N2999	N	0.254439	0.920940	0.798836
	H3000	H	0.140262	0.980330	0.348293
	H3001	H	0.207906	0.945498	0.347880
	H3002	H	0.177432	0.985647	0.150897
	H3003	H	0.244646	0.955265	0.152313
	H3004	H	0.177378	0.985117	0.346262
	H3005	H	0.244664	0.955631	0.349319
	H3006	H	0.140278	0.980486	0.151576
	H3007	H	0.207833	0.945664	0.152021
	H3008	H	0.179425	0.942110	0.097529
	H3009	H	0.242032	1.004084	0.097952
	H3010	H	0.142990	0.927054	0.401647
	H3011	H	0.205477	0.989606	0.400929
	H3012	H	0.142895	0.927129	0.098679
	H3013	H	0.205512	0.989398	0.097758
	H3014	H	0.179571	0.941397	0.400909
	H3015	H	0.242014	1.004139	0.401631
	H3016	H	0.152596	0.980891	0.649121
	H3017	H	0.220037	0.946936	0.648631
	H3018	H	0.165230	0.985003	0.147904
	H3019	H	0.232611	0.951721	-0.147535
	H3020	H	0.165231	0.984684	0.648003
	H3021	H	0.232558	0.952344	0.648992
	H3022	H	0.152572	0.981383	0.148682
	H3023	H	0.220101	0.946569	-0.147414
	H3024	H	0.167536	0.936868	0.398956
	H3025	H	0.230071	0.998558	0.398801
	H3026	H	0.154828	0.933013	0.100699
	H3027	H	0.217351	0.996027	0.099979
	H3028	H	0.154862	0.933198	0.399200
	H3029	H	0.217405	0.994861	0.398638
	H3030	H	0.167475	0.936492	0.100240
	H3031	H	0.230007	0.999769	0.099852
	Co3032	Co	0.255173	1.027273	0.124453
	Co3033	Co	0.192604	0.965179	0.123218
	Co3034	Co	0.130124	0.902512	0.375808
	Co3035	Co	0.192628	0.965061	0.374565
	C3036	C	0.139011	0.981461	0.422831
	C3037	C	0.206644	0.946469	0.422471
	C3038	C	0.178691	0.984498	0.076097
	C3039	C	0.245946	0.954745	0.078008
	C3040	C	0.178643	0.984203	0.421018
	C3041	C	0.245977	0.954753	0.423059
	C3042	C	0.139040	0.981527	0.077312
	C3043	C	0.206604	0.946552	0.077549
	C3044	C	0.180593	0.943267	0.171531
	C3045	C	0.243160	1.005459	0.172626
	C3046	C	0.141887	0.925568	0.327549
	C3047	C	0.204391	0.988104	0.326715
	C3048	C	0.141864	0.925571	0.172834
	C3049	C	0.204385	0.988027	0.172184
	C3050	C	0.180659	0.943072	0.326265
	C3051	C	0.243155	1.005397	0.327580
	C3052	C	0.143672	0.979805	0.500304
	C3053	C	0.211257	0.945086	0.000384
	C3054	C	0.174019	0.986276	0.498514
	C3055	C	0.241308	0.955452	0.000420
	C3056	C	0.176276	0.939777	0.249113
	C3057	C	0.238812	1.002124	0.249986
	C3058	C	0.146140	0.929459	0.249992
	C3059	C	0.208654	0.991983	0.249478
	C3060	C	0.151384	0.980710	0.499672
	C3061	C	0.218947	0.946495	0.000556
	C3062	C	0.166287	0.985460	0.498736
	C3063	C	0.233679	0.953090	0.000547
	C3064	C	0.168683	0.936851	0.249543
	C3065	C	0.231209	0.999261	0.249689
	C3066	C	0.153681	0.932874	0.249810
	C3067	C	0.216203	0.995417	0.249498
	C3068	C	0.155253	0.981754	0.582475
	C3069	C	0.222736	0.948010	0.583019
	C3070	C	0.162483	0.984235	0.081996
	C3071	C	0.229923	0.950975	-0.081771
	C3072	C	0.162473	0.984033	0.581989
	C3073	C	0.229885	0.951177	0.583182
	C3074	C	0.155256	0.981987	0.082413
	C3075	C	0.222779	0.947793	-0.081971
	C3076	C	0.164824	0.935939	0.332675
	C3077	C	0.227352	0.998002	0.332617
	C3078	C	0.157540	0.933826	0.166809
	C3079	C	0.220065	0.996700	0.166402
	C3080	C	0.157564	0.933956	0.332912
	C3081	C	0.220091	0.996100	0.332498
	C3082	C	0.164794	0.935833	0.166721
	C3083	C	0.227329	0.998571	0.166400
	N3084	N	0.132173	0.985008	0.451953
	N3085	N	0.199788	0.949927	0.450875
	N3086	N	0.185529	0.980715	0.047055
	N3087	N	0.252831	0.952753	0.049582
	N3088	N	0.185487	0.980599	0.449752
	N3089	N	0.252876	0.952826	0.451700
	N3090	N	0.132192	0.984886	0.049110
	N3091	N	0.199761	0.949784	0.048166
	N3092	N	0.186865	0.949009	0.200199
	N3093	N	0.249459	1.011081	0.201642
	N3094	N	0.135727	0.919089	0.298710
	N3095	N	0.198245	0.981601	0.297830
	N3096	N	0.135698	0.919188	0.201797
	N3097	N	0.198239	0.981564	0.200892
	N3098	N	0.186913	0.948874	0.297296
	N3099	N	0.249455	1.011049	0.298693
	H3100	H	0.140229	0.980505	0.847779
	H3101	H	0.207990	0.945803	0.848351
	H3102	H	0.177434	0.985979	0.649857
	H3103	H	0.244666	0.955188	0.652974
	H3104	H	0.177370	0.985007	0.846925
	H3105	H	0.244662	0.955723	0.847965
	H3106	H	0.140387	0.980557	0.652333
	H3107	H	0.207830	0.945836	0.651721
	H3108	H	0.179461	0.942269	0.596935
	H3109	H	0.242109	1.003991	0.598038
	H3110	H	0.143053	0.927027	0.901639
	H3111	H	0.205456	0.989557	0.901096
	H3112	H	0.142990	0.927050	0.597996
	H3113	H	0.205462	0.989739	0.597616
	H3114	H	0.179648	0.941329	0.900731
	H3115	H	0.242040	1.004153	0.901946
	H3116	H	0.152531	0.981191	0.850407
	H3117	H	0.220026	0.947091	1.148789
	H3118	H	0.165085	0.985184	0.349395
	H3119	H	0.232657	0.951457	0.352456
	H3120	H	0.165160	0.984976	0.850040
	H3121	H	0.232545	0.952355	1.149156
	H3122	H	0.152462	0.981571	0.349876
	H3123	H	0.220138	0.946015	0.352209
	H3124	H	0.167577	0.936575	0.600225
	H3125	H	0.230013	0.999357	0.600083
	H3126	H	0.154883	0.933567	0.899120
	H3127	H	0.217385	0.995395	0.898728
	H3128	H	0.154860	0.933094	0.600207
	H3129	H	0.217327	0.996013	0.600221
	H3130	H	0.167531	0.937088	0.899192
	H3131	H	0.230043	0.998913	0.898353
	Co3132	Co	0.255097	1.027514	0.624462
	Co3133	Co	0.192602	0.965289	0.623448
	Co3134	Co	0.130171	0.902699	0.875738
	Co3135	Co	0.192664	0.964883	0.874397
	C3136	C	0.139016	0.981411	0.922399
	C3137	C	0.206676	0.946590	0.922565
	C3138	C	0.178667	0.984598	0.575821
	C3139	C	0.245995	0.954623	0.578313
	C3140	C	0.178661	0.984102	0.920931
	C3141	C	0.245950	0.954779	0.922937
	C3142	C	0.139051	0.981678	0.577966
	C3143	C	0.206605	0.946547	0.577274
	C3144	C	0.180628	0.943282	0.671634
	C3145	C	0.243153	1.005482	0.672317
	C3146	C	0.141936	0.925597	0.827285
	C3147	C	0.204406	0.988079	0.826882
	C3148	C	0.141890	0.925615	0.672448
	C3149	C	0.204394	0.988214	0.671979
	C3150	C	0.180708	0.942868	0.826492
	C3151	C	0.243147	1.005409	0.827027
	C3152	C	0.143667	0.979800	0.999797
	C3153	C	0.211249	0.944873	0.500049
	C3154	C	0.174057	0.986158	0.998699
	C3155	C	0.241347	0.955309	0.500737
	C3156	C	0.176329	0.939746	0.749127
	C3157	C	0.238814	1.002043	0.749545
	C3158	C	0.146185	0.929419	0.749656
	C3159	C	0.208641	0.992049	0.749454
	C3160	C	0.151393	0.980724	0.999622
	C3161	C	0.218948	0.946215	0.500378
	C3162	C	0.166311	0.985389	0.998955
	C3163	C	0.233688	0.952852	0.500719
	C3164	C	0.168724	0.936891	0.749401
	C3165	C	0.231191	0.999227	0.749309
	C3166	C	0.153735	0.932968	0.749497
	C3167	C	0.216210	0.995419	0.749489
	C3168	C	0.155230	0.981966	0.916499
	C3169	C	0.222743	0.948128	1.083254
	C3170	C	0.162404	0.984339	0.415783
	C3171	C	0.229945	0.950582	0.418202
	C3172	C	0.162456	0.984153	0.916206
	C3173	C	0.229883	0.951306	1.083093
	C3174	C	0.155176	0.982090	0.416299
	C3175	C	0.222790	0.947469	0.417995
	C3176	C	0.164832	0.935943	0.666408
	C3177	C	0.227300	0.998529	0.666371
	C3178	C	0.157598	0.934169	0.832643
	C3179	C	0.220091	0.996310	0.832560
	C3180	C	0.157583	0.934013	0.666293
	C3181	C	0.220052	0.996632	0.666365
	C3182	C	0.164846	0.936173	0.832709
	C3183	C	0.227331	0.998229	0.832359
	N3184	N	0.132180	0.984856	0.951561
	N3185	N	0.199807	0.949745	0.950840
	N3186	N	0.185496	0.980772	0.547085
	N3187	N	0.252877	0.952692	0.549527
	N3188	N	0.185520	0.980505	0.949875
	N3189	N	0.252831	0.952809	0.951466
	N3190	N	0.132215	0.985163	0.549257
	N3191	N	0.199761	0.949944	0.548249
	N3192	N	0.186918	0.948992	0.700334
	N3193	N	0.249449	1.011117	0.701120
	N3194	N	0.135761	0.919194	0.798538
	N3195	N	0.198226	0.981639	0.798009
	N3196	N	0.135735	0.919173	0.701711
	N3197	N	0.198237	0.981693	0.700833
	N3198	N	0.186971	0.948697	0.797504
	N3199	N	0.249438	1.011078	0.798507
	H3200	H	0.265336	0.105333	0.348169
	H3201	H	0.332965	0.071151	0.347011
	H3202	H	0.302305	0.110081	0.151755
	H3203	H	0.369609	0.080728	0.152544
	H3204	H	0.302342	0.110494	0.347763
	H3205	H	0.369705	0.080939	0.347841
	H3206	H	0.265267	0.104702	0.151488
	H3207	H	0.332812	0.070377	0.151484
	H3208	H	0.304497	0.066730	0.097543
	H3209	H	0.367030	0.129112	0.097616
	H3210	H	0.268000	0.051734	0.401944
	H3211	H	0.330290	0.115159	0.400079
	H3212	H	0.267922	0.052085	0.098283
	H3213	H	0.330406	0.114362	0.097423
	H3214	H	0.304509	0.066858	0.401416
	H3215	H	0.367039	0.129379	0.401152
	H3216	H	0.277594	0.105398	0.350777
	H3217	H	0.345291	0.070740	0.350876
	H3218	H	0.290070	0.110491	0.148751
	H3219	H	0.357488	0.077914	0.149291
	H3220	H	0.290223	0.109230	0.350739
	H3221	H	0.357769	0.076283	0.350975
	H3222	H	0.277443	0.106387	0.148890
	H3223	H	0.345008	0.072424	0.149379
	H3224	H	0.292394	0.062353	0.100822
	H3225	H	0.354956	0.124864	0.100074
	H3226	H	0.279900	0.057395	0.399288
	H3227	H	0.342416	0.119800	0.399157
	H3228	H	0.279785	0.058645	0.101562
	H3229	H	0.342259	0.121745	0.099839
	H3230	H	0.292561	0.061232	0.398870
	H3231	H	0.355090	0.123119	0.398633
	Co3232	Co	0.380095	0.152653	0.124351
	Co3233	Co	0.317600	0.089976	0.123867
	Co3234	Co	0.255106	0.027415	0.375347
	Co3235	Co	0.317591	0.090078	0.374663
	C3236	C	0.264034	0.106366	0.422404
	C3237	C	0.331664	0.071813	0.421881
	C3238	C	0.303591	0.109174	0.077347
	C3239	C	0.370893	0.079866	0.077860
	C3240	C	0.303651	0.109138	0.422527
	C3241	C	0.370993	0.080114	0.422623
	C3242	C	0.263994	0.106026	0.076922
	C3243	C	0.331576	0.071424	0.076883
	C3244	C	0.305606	0.068131	0.172082
	C3245	C	0.368085	0.130727	0.172107
	C3246	C	0.266895	0.050343	0.327397
	C3247	C	0.329282	0.113312	0.326103
	C3248	C	0.266878	0.050553	0.172404
	C3249	C	0.329346	0.112956	0.171658
	C3250	C	0.305642	0.068127	0.326957
	C3251	C	0.368099	0.130684	0.326797
	C3252	C	0.268678	0.104541	0.499981
	C3253	C	0.336234	0.069965	-0.000471
	C3254	C	0.299014	0.110881	0.500207
	C3255	C	0.366276	0.080473	0.000064
	C3256	C	0.301285	0.064778	0.249795
	C3257	C	0.363779	0.127176	0.249402
	C3258	C	0.271150	0.054260	0.250278
	C3259	C	0.333595	0.117062	0.249131
	C3260	C	0.276392	0.105459	0.500251
	C3261	C	0.343953	0.071194	0.000013
	C3262	C	0.291289	0.110136	0.500197
	C3263	C	0.358663	0.077950	0.000097
	C3264	C	0.293691	0.061792	0.250094
	C3265	C	0.356174	0.124260	0.249399
	C3266	C	0.278690	0.057695	0.250498
	C3267	C	0.341158	0.120449	0.249338
	C3268	C	0.280262	0.106385	0.417363
	C3269	C	0.347887	0.072485	0.417006
	C3270	C	0.287373	0.109416	0.082768
	C3271	C	0.354850	0.076520	0.083175
	C3272	C	0.287495	0.108598	0.417169
	C3273	C	0.355028	0.075681	0.417047
	C3274	C	0.280158	0.107046	0.082627
	C3275	C	0.347715	0.073203	0.083226
	C3276	C	0.289759	0.061233	0.167476
	C3277	C	0.352258	0.123830	0.166175
	C3278	C	0.282590	0.058476	0.333126
	C3279	C	0.345065	0.120939	0.332526
	C3280	C	0.282504	0.059262	0.167556
	C3281	C	0.344996	0.121989	0.166243
	C3282	C	0.289842	0.060530	0.332800
	C3283	C	0.352327	0.122866	0.332552
	N3284	N	0.257199	0.109784	0.451013
	N3285	N	0.324803	0.074901	0.450347
	N3286	N	0.310439	0.105526	0.048282
	N3287	N	0.377791	0.078028	0.049136
	N3288	N	0.310475	0.105429	0.451325
	N3289	N	0.377879	0.078205	0.451333
	N3290	N	0.257141	0.109443	0.048491
	N3291	N	0.324735	0.074741	0.047994
	N3292	N	0.311877	0.073923	0.200787
	N3293	N	0.374358	0.136507	0.200961
	N3294	N	0.260746	0.043936	0.298348
	N3295	N	0.323110	0.106868	0.297525
	N3296	N	0.260718	0.044054	0.201296
	N3297	N	0.323179	0.106606	0.200394
	N3298	N	0.311921	0.073782	0.298155
	N3299	N	0.374345	0.136523	0.298217
	H3300	H	0.265249	0.105038	0.848245
	H3301	H	0.332886	0.070950	0.848309
	H3302	H	0.302370	0.109773	0.652358
	H3303	H	0.369694	0.080475	0.652466
	H3304	H	0.302303	0.110448	0.847894
	H3305	H	0.369610	0.080534	0.847848
	H3306	H	0.265277	0.104965	0.651400
	H3307	H	0.332903	0.069896	0.650584
	H3308	H	0.304571	0.066223	0.597649
	H3309	H	0.367029	0.129050	0.598085
	H3310	H	0.268022	0.051699	0.901359
	H3311	H	0.330298	0.115094	0.900995
	H3312	H	0.267942	0.052019	0.598159
	H3313	H	0.330513	0.114008	0.597428
	H3314	H	0.304460	0.067043	0.902111
	H3315	H	0.366923	0.129243	0.901944
	H3316	H	0.277540	0.105101	0.850218
	H3317	H	0.345156	0.070747	0.851124
	H3318	H	0.290132	0.110224	0.649756
	H3319	H	0.357530	0.078715	0.648389
	H3320	H	0.290178	0.109083	0.850609
	H3321	H	0.357675	0.076205	0.851065
	H3322	H	0.277479	0.106477	0.649949
	H3323	H	0.345040	0.073226	0.647871
	H3324	H	0.292452	0.062370	0.601392
	H3325	H	0.354909	0.125368	0.600777
	H3326	H	0.279934	0.057452	0.899038
	H3327	H	0.342399	0.119538	0.898592
	H3328	H	0.279765	0.058927	0.601250
	H3329	H	0.342250	0.121908	0.600838
	H3330	H	0.292622	0.060732	0.899132
	H3331	H	0.355080	0.123192	0.898759
	Co3332	Co	0.380119	0.152476	0.624972
	Co3333	Co	0.317667	0.089691	0.624076
	Co3334	Co	0.255163	0.027240	0.875515
	Co3335	Co	0.317584	0.090262	0.874720
	C3336	C	0.263984	0.106100	0.922285
	C3337	C	0.331605	0.071734	0.922069
	C3338	C	0.303669	0.108887	0.577896
	C3339	C	0.370985	0.079904	0.577793
	C3340	C	0.303582	0.109326	0.921910
	C3341	C	0.370908	0.079887	0.922597
	C3342	C	0.264013	0.106097	0.577369
	C3343	C	0.331641	0.071181	0.576595
	C3344	C	0.305653	0.067700	0.672388
	C3345	C	0.368121	0.130559	0.672572
	C3346	C	0.266925	0.050273	0.827285
	C3347	C	0.329291	0.113289	0.826465
	C3348	C	0.266866	0.050573	0.672755
	C3349	C	0.329396	0.112826	0.671943
	C3350	C	0.305598	0.068059	0.827462
	C3351	C	0.368077	0.130647	0.827481
	C3352	C	0.268636	0.104422	0.999587
	C3353	C	0.336309	0.069974	0.499328
	C3354	C	0.298958	0.111113	0.999698
	C3355	C	0.366370	0.080665	0.500156
	C3356	C	0.301310	0.064455	0.749990
	C3357	C	0.363758	0.127231	0.749855
	C3358	C	0.271139	0.054312	0.750095
	C3359	C	0.333610	0.116998	0.749350
	C3360	C	0.276352	0.105395	0.999641
	C3361	C	0.344010	0.071474	0.499640
	C3362	C	0.291228	0.110308	0.999682
	C3363	C	0.358753	0.078261	0.499859
	C3364	C	0.293699	0.061565	0.750084
	C3365	C	0.356158	0.124355	0.749477
	C3366	C	0.278697	0.057806	0.750241
	C3367	C	0.341166	0.120500	0.749610
	C3368	C	0.280211	0.106306	0.916656
	C3369	C	0.347811	0.072353	0.917090
	C3370	C	0.287426	0.109217	0.583435
	C3371	C	0.354904	0.077039	0.582494
	C3372	C	0.287428	0.108621	0.916719
	C3373	C	0.354954	0.075559	0.917129
	C3374	C	0.280195	0.106967	0.583502
	C3375	C	0.347760	0.073791	0.582099
	C3376	C	0.289772	0.061163	0.667236
	C3377	C	0.352251	0.124011	0.666810
	C3378	C	0.282620	0.058439	0.832958
	C3379	C	0.345077	0.120890	0.832675
	C3380	C	0.282524	0.059239	0.667329
	C3381	C	0.345000	0.122125	0.666762
	C3382	C	0.289868	0.060304	0.832859
	C3383	C	0.352331	0.122868	0.832584
	N3384	N	0.257141	0.109499	0.951014
	N3385	N	0.324759	0.074994	0.950423
	N3386	N	0.310495	0.105180	0.548627
	N3387	N	0.377865	0.078091	0.549273
	N3388	N	0.310423	0.105598	0.951064
	N3389	N	0.377790	0.078039	0.951107
	N3390	N	0.257165	0.109614	0.548339
	N3391	N	0.324789	0.074469	0.547873
	N3392	N	0.311926	0.073597	0.701363
	N3393	N	0.374409	0.136267	0.701599
	N3394	N	0.260753	0.043847	0.798456
	N3395	N	0.323163	0.106670	0.797437
	N3396	N	0.260713	0.044012	0.701441
	N3397	N	0.323223	0.106399	0.700519
	N3398	N	0.311870	0.073876	0.798430
	N3399	N	0.374367	0.136391	0.798547
	H3400	H	0.260160	0.202700	0.347521
	H3401	H	0.327844	0.167922	0.348182
	H3402	H	0.297228	0.206840	0.151804
	H3403	H	0.364855	0.172982	0.151290
	H3404	H	0.297293	0.207214	0.347732
	H3405	H	0.364962	0.172941	0.347939
	H3406	H	0.260001	0.201490	0.151662
	H3407	H	0.327789	0.167625	0.151620
	H3408	H	0.299578	0.163314	0.097935
	H3409	H	0.362156	0.225796	0.098803
	H3410	H	0.263012	0.149008	0.401467
	H3411	H	0.325522	0.211581	0.401972
	H3412	H	0.262982	0.148824	0.098275
	H3413	H	0.325527	0.211489	0.098225
	H3414	H	0.299590	0.163176	0.401409
	H3415	H	0.362070	0.226354	0.402310
	H3416	H	0.272424	0.201693	0.349959
	H3417	H	0.340112	0.167706	0.351012
	H3418	H	0.284972	0.207084	0.149124
	H3419	H	0.352609	0.173334	0.149482
	H3420	H	0.285043	0.205489	0.349918
	H3421	H	0.352757	0.171648	0.350625
	H3422	H	0.272334	0.203190	0.149381
	H3423	H	0.339942	0.169320	0.149489
	H3424	H	0.287558	0.158145	0.100570
	H3425	H	0.350093	0.221009	0.101340
	H3426	H	0.274957	0.153951	0.399128
	H3427	H	0.337527	0.216158	0.399782
	H3428	H	0.274857	0.155027	0.100728
	H3429	H	0.337432	0.217655	0.101109
	H3430	H	0.287707	0.157084	0.398765
	H3431	H	0.350200	0.219626	0.400001
	Co3432	Co	0.375002	0.250105	0.125344
	Co3433	Co	0.312524	0.187478	0.124788
	Co3434	Co	0.249978	0.125049	0.375493
	Co3435	Co	0.312550	0.187446	0.375293
	C3436	C	0.258888	0.203522	0.422029
	C3437	C	0.326579	0.168862	0.422691
	C3438	C	0.298480	0.206008	0.077558
	C3439	C	0.366141	0.171903	0.077371
	C3440	C	0.298512	0.206230	0.422623
	C3441	C	0.366204	0.171924	0.422348
	C3442	C	0.258841	0.202809	0.077009
	C3443	C	0.326529	0.168704	0.077118
	C3444	C	0.300685	0.164636	0.172204
	C3445	C	0.363201	0.227361	0.173281
	C3446	C	0.261867	0.147605	0.327332
	C3447	C	0.324415	0.209968	0.327704
	C3448	C	0.261880	0.147447	0.172565
	C3449	C	0.324412	0.210105	0.172696
	C3450	C	0.300684	0.164667	0.327277
	C3451	C	0.363155	0.227664	0.328006
	C3452	C	0.263507	0.201369	0.499787
	C3453	C	0.331163	0.167105	-0.000334
	C3454	C	0.293862	0.207785	0.500060
	C3455	C	0.361510	0.173733	-0.000390
	C3456	C	0.296389	0.160923	0.249691
	C3457	C	0.358877	0.223878	0.250749
	C3458	C	0.266175	0.151223	0.249990
	C3459	C	0.328706	0.213654	0.250372
	C3460	C	0.271245	0.202101	0.499747
	C3461	C	0.338882	0.168111	-0.000171
	C3462	C	0.286121	0.206837	0.499689
	C3463	C	0.353755	0.172953	-0.000223
	C3464	C	0.288786	0.157812	0.249712
	C3465	C	0.351315	0.220624	0.250768
	C3466	C	0.273762	0.154354	0.250093
	C3467	C	0.336302	0.216846	0.250420
	C3468	C	0.275103	0.202861	0.416389
	C3469	C	0.342795	0.168993	0.417256
	C3470	C	0.282265	0.205883	0.082853
	C3471	C	0.349893	0.172111	0.083244
	C3472	C	0.282312	0.205153	0.416439
	C3473	C	0.350013	0.171176	0.416790
	C3474	C	0.275053	0.203617	0.082935
	C3475	C	0.342674	0.169817	0.083171
	C3476	C	0.284855	0.157320	0.166743
	C3477	C	0.347406	0.220009	0.167693
	C3478	C	0.277655	0.154920	0.332905
	C3479	C	0.340222	0.217274	0.333505
	C3480	C	0.277592	0.155559	0.167037
	C3481	C	0.340148	0.218193	0.167363
	C3482	C	0.284925	0.156632	0.332667
	C3483	C	0.347480	0.219160	0.333662
	N3484	N	0.252038	0.207054	0.450637
	N3485	N	0.319715	0.172200	0.451188
	N3486	N	0.305317	0.202713	0.049064
	N3487	N	0.372992	0.168105	0.048393
	N3488	N	0.305352	0.202696	0.451412
	N3489	N	0.373017	0.168001	0.451430
	N3490	N	0.252000	0.206740	0.048066
	N3491	N	0.319688	0.172241	0.048294
	N3492	N	0.306874	0.170971	0.201393
	N3493	N	0.369399	0.233628	0.202246
	N3494	N	0.255662	0.141406	0.298511
	N3495	N	0.318186	0.203900	0.298587
	N3496	N	0.255671	0.141312	0.201523
	N3497	N	0.318187	0.203920	0.201627
	N3498	N	0.306883	0.170978	0.298442
	N3499	N	0.369371	0.233800	0.299306
	H3500	H	0.260115	0.202740	0.847175
	H3501	H	0.327807	0.168031	0.848002
	H3502	H	0.297200	0.206871	0.652046
	H3503	H	0.364910	0.172963	0.652147
	H3504	H	0.297303	0.207313	0.848098
	H3505	H	0.364849	0.172745	0.848043
	H3506	H	0.260068	0.201628	0.651628
	H3507	H	0.327777	0.167708	0.652100
	H3508	H	0.299718	0.162804	0.597499
	H3509	H	0.362123	0.226029	0.598496
	H3510	H	0.262988	0.148972	0.902039
	H3511	H	0.325372	0.211887	0.901814
	H3512	H	0.262958	0.148967	0.597752
	H3513	H	0.325532	0.211256	0.598089
	H3514	H	0.299502	0.163576	0.901450
	H3515	H	0.362111	0.226085	0.902598
	H3516	H	0.272421	0.201879	0.849781
	H3517	H	0.340052	0.167731	0.850048
	H3518	H	0.284976	0.206803	0.649150
	H3519	H	0.352643	0.173762	0.649207
	H3520	H	0.285052	0.205633	0.849753
	H3521	H	0.352694	0.171731	0.850157
	H3522	H	0.272323	0.203177	0.649129
	H3523	H	0.340004	0.169772	0.649800
	H3524	H	0.287546	0.158488	0.600071
	H3525	H	0.350016	0.221434	0.600396
	H3526	H	0.275046	0.153802	0.899092
	H3527	H	0.337505	0.216227	0.900094
	H3528	H	0.274864	0.155277	0.600388
	H3529	H	0.337371	0.218085	0.600295
	H3530	H	0.287713	0.156936	0.898766
	H3531	H	0.350193	0.219518	0.899692
	Co3532	Co	0.375012	0.250045	0.625032
	Co3533	Co	0.312541	0.187413	0.624580
	Co3534	Co	0.250004	0.124967	0.875051
	Co3535	Co	0.312531	0.187526	0.875270
	C3536	C	0.258877	0.203345	0.921893
	C3537	C	0.326536	0.168942	0.922371
	C3538	C	0.298482	0.205971	0.577514
	C3539	C	0.366164	0.171711	0.577344
	C3540	C	0.298508	0.206347	0.922601
	C3541	C	0.366135	0.171750	0.922265
	C3542	C	0.258859	0.202982	0.577159
	C3543	C	0.326552	0.168792	0.577652
	C3544	C	0.300729	0.164498	0.672238
	C3545	C	0.363182	0.227460	0.673009
	C3546	C	0.261890	0.147487	0.827382
	C3547	C	0.324337	0.210281	0.827224
	C3548	C	0.261872	0.147421	0.672748
	C3549	C	0.324402	0.210025	0.672536
	C3550	C	0.300649	0.164825	0.827005
	C3551	C	0.363171	0.227481	0.827668
	C3552	C	0.263477	0.201183	0.999747
	C3553	C	0.331197	0.167256	0.500310
	C3554	C	0.293880	0.207774	1.000026
	C3555	C	0.361565	0.173793	0.499676
	C3556	C	0.296388	0.160951	0.749499
	C3557	C	0.358870	0.223863	0.750193
	C3558	C	0.266194	0.151170	0.750092
	C3559	C	0.328669	0.213833	0.750014
	C3560	C	0.271230	0.201932	0.999838
	C3561	C	0.338923	0.168272	0.500452
	C3562	C	0.286127	0.206778	0.999576
	C3563	C	0.353813	0.173097	0.499669
	C3564	C	0.288809	0.157897	0.749254
	C3565	C	0.351278	0.220717	0.750175
	C3566	C	0.273777	0.154360	0.749783
	C3567	C	0.336250	0.216957	0.750345
	C3568	C	0.275100	0.202914	0.916338
	C3569	C	0.342732	0.168995	0.916525
	C3570	C	0.282272	0.205827	0.582869
	C3571	C	0.349939	0.172512	0.583146
	C3572	C	0.282311	0.205187	0.916142
	C3573	C	0.349948	0.171277	0.916337
	C3574	C	0.275057	0.203571	0.582910
	C3575	C	0.342724	0.170230	0.583393
	C3576	C	0.284880	0.157445	0.666325
	C3577	C	0.347346	0.220345	0.666833
	C3578	C	0.277711	0.154889	0.832612
	C3579	C	0.340162	0.217392	0.833574
	C3580	C	0.277604	0.155661	0.666646
	C3581	C	0.340087	0.218437	0.667074
	C3582	C	0.284988	0.156589	0.832480
	C3583	C	0.347423	0.219223	0.833502
	N3584	N	0.252018	0.207032	0.950613
	N3585	N	0.319701	0.172312	0.951007
	N3586	N	0.305332	0.202568	0.548944
	N3587	N	0.372995	0.167851	0.548788
	N3588	N	0.305341	0.202820	0.951541
	N3589	N	0.372973	0.167998	0.951227
	N3590	N	0.252034	0.206794	0.548064
	N3591	N	0.319697	0.172156	0.548617
	N3592	N	0.306918	0.170753	0.701269
	N3593	N	0.369417	0.233547	0.701704
	N3594	N	0.255697	0.141242	0.798506
	N3595	N	0.318130	0.204072	0.798291
	N3596	N	0.255669	0.141257	0.701479
	N3597	N	0.318191	0.203840	0.701154
	N3598	N	0.306852	0.171004	0.798463
	N3599	N	0.369397	0.233665	0.799107
	H3600	H	0.255383	0.294763	0.347019
	H3601	H	0.322584	0.264536	0.347846
	H3602	H	0.292073	0.304226	0.152183
	H3603	H	0.359629	0.269355	0.152627
	H3604	H	0.292163	0.304480	0.347279
	H3605	H	0.359731	0.269867	0.348960
	H3606	H	0.255333	0.293890	0.150819
	H3607	H	0.322490	0.264383	0.151510
	H3608	H	0.294494	0.260460	0.098147
	H3609	H	0.357155	0.322188	0.099610
	H3610	H	0.257822	0.246247	0.401645
	H3611	H	0.320406	0.308413	0.401968
	H3612	H	0.258012	0.245338	0.097366
	H3613	H	0.320522	0.308309	0.097952
	H3614	H	0.294476	0.260699	0.401331
	H3615	H	0.356934	0.323354	0.402962
	H3616	H	0.267368	0.298647	0.647349
	H3617	H	0.334930	0.263908	0.350490
	H3618	H	0.279818	0.304007	0.148406
	H3619	H	0.347568	0.267782	-0.148604
	H3620	H	0.279845	0.303962	0.647501
	H3621	H	0.347533	0.267861	0.351026
	H3622	H	0.267303	0.298579	0.148870
	H3623	H	0.334877	0.264183	-0.149558
	H3624	H	0.282529	0.254902	0.100520
	H3625	H	0.345125	0.317863	0.101865
	H3626	H	0.269964	0.250277	0.398955
	H3627	H	0.332516	0.312436	0.399436
	H3628	H	0.269882	0.251484	0.100357
	H3629	H	0.332415	0.314473	0.101525
	H3630	H	0.282611	0.253877	0.398836
	H3631	H	0.345227	0.315806	0.399903
	Co3632	Co	0.369917	0.347289	0.125947
	Co3633	Co	0.307378	0.285085	0.124553
	Co3634	Co	0.244862	0.222539	0.374559
	Co3635	Co	0.307370	0.284975	0.375310
	C3636	C	0.254075	0.295297	0.421428
	C3637	C	0.321319	0.265692	0.422288
	C3638	C	0.293340	0.303465	0.077793
	C3639	C	0.360924	0.268500	0.078536
	C3640	C	0.293422	0.303628	0.421672
	C3641	C	0.360952	0.268834	0.423785
	C3642	C	0.254002	0.294923	0.076885
	C3643	C	0.321324	0.265680	0.077094
	C3644	C	0.295563	0.262089	0.172249
	C3645	C	0.358219	0.324023	0.173904
	C3646	C	0.256769	0.244720	0.326864
	C3647	C	0.319345	0.306979	0.327512
	C3648	C	0.256882	0.244082	0.172058
	C3649	C	0.319395	0.306927	0.172526
	C3650	C	0.295550	0.262107	0.327130
	C3651	C	0.358087	0.324726	0.328928
	C3652	C	0.258697	0.294605	0.498719
	C3653	C	0.325935	0.263956	-0.000459
	C3654	C	0.288758	0.305148	0.499012
	C3655	C	0.356330	0.270359	0.000702
	C3656	C	0.291284	0.258194	0.249646
	C3657	C	0.353880	0.320491	0.251312
	C3658	C	0.261159	0.247841	0.249724
	C3659	C	0.323699	0.310383	0.250247
	C3660	C	0.266317	0.297087	0.498666
	C3661	C	0.333663	0.264697	-0.000365
	C3662	C	0.281063	0.303757	0.498663
	C3663	C	0.348563	0.269371	0.000314
	C3664	C	0.283742	0.254734	0.249694
	C3665	C	0.346308	0.317151	0.250856
	C3666	C	0.268754	0.250808	0.249941
	C3667	C	0.331313	0.313323	0.250659
	C3668	C	0.270068	0.299381	0.581323
	C3669	C	0.337572	0.265293	0.416960
	C3670	C	0.277160	0.302514	0.082626
	C3671	C	0.344771	0.267622	-0.082875
	C3672	C	0.277207	0.302636	0.581364
	C3673	C	0.344786	0.267625	0.417184
	C3674	C	0.270021	0.299226	0.082586
	C3675	C	0.337560	0.265431	-0.083247
	C3676	C	0.279854	0.253946	0.166729
	C3677	C	0.342427	0.316710	0.167828
	C3678	C	0.272651	0.251373	0.332734
	C3679	C	0.335224	0.313635	0.333691
	C3680	C	0.272598	0.252038	0.166694
	C3681	C	0.335166	0.314774	0.167706
	C3682	C	0.279906	0.253350	0.332635
	C3683	C	0.342480	0.315575	0.333695
	N3684	N	0.247195	0.297035	0.449859
	N3685	N	0.314483	0.269520	0.451307
	N3686	N	0.300198	0.300276	0.048744
	N3687	N	0.367805	0.265212	0.049824
	N3688	N	0.300246	0.300345	0.450857
	N3689	N	0.367783	0.265413	0.452457
	N3690	N	0.247137	0.296886	0.048023
	N3691	N	0.314489	0.269564	0.048310
	N3692	N	0.301725	0.268550	0.201250
	N3693	N	0.364374	0.330577	0.203079
	N3694	N	0.250513	0.238821	0.297742
	N3695	N	0.313084	0.301140	0.298339
	N3696	N	0.250581	0.238466	0.200643
	N3697	N	0.313111	0.301150	0.201286
	N3698	N	0.301706	0.268581	0.298324
	N3699	N	0.364263	0.331086	0.300078
	H3700	H	0.255377	0.294680	0.847158
	H3701	H	0.322513	0.265047	0.848039
	H3702	H	0.292055	0.304413	0.651363
	H3703	H	0.359701	0.269580	0.652901
	H3704	H	0.292089	0.304641	0.847499
	H3705	H	0.359683	0.270010	0.849671
	H3706	H	0.255361	0.294271	0.650991
	H3707	H	0.322593	0.264607	0.652121
	H3708	H	0.294567	0.260389	0.597996
	H3709	H	0.357155	0.322558	0.599682
	H3710	H	0.257981	0.245997	0.901293
	H3711	H	0.320472	0.308507	0.902401
	H3712	H	0.258060	0.245695	0.597824
	H3713	H	0.320523	0.308398	0.598457
	H3714	H	0.294448	0.260919	0.901749
	H3715	H	0.357046	0.323036	0.902855
	H3716	H	0.267467	0.297105	0.850694
	H3717	H	0.334710	0.265871	1.149313
	H3718	H	0.279991	0.302651	0.349719
	H3719	H	0.347328	0.270165	0.650177
	H3720	H	0.279977	0.302461	0.850804
	H3721	H	0.347375	0.269574	1.149488
	H3722	H	0.267479	0.297400	0.349877
	H3723	H	0.334699	0.266273	0.649669
	H3724	H	0.282567	0.255164	0.600355
	H3725	H	0.345110	0.317679	0.602076
	H3726	H	0.270010	0.250391	0.899112
	H3727	H	0.332529	0.312491	0.899460
	H3728	H	0.269903	0.251427	0.600461
	H3729	H	0.332450	0.314138	0.601275
	H3730	H	0.282673	0.253852	0.898817
	H3731	H	0.345223	0.315939	0.899977
	Co3732	Co	0.369870	0.347437	0.625545
	Co3733	Co	0.307356	0.285152	0.624626
	Co3734	Co	0.244902	0.222497	0.874869
	Co3735	Co	0.307355	0.285199	0.875186
	C3736	C	0.254039	0.295201	0.921480
	C3737	C	0.321318	0.266023	0.922270
	C3738	C	0.293366	0.303573	0.576930
	C3739	C	0.360943	0.268695	0.578398
	C3740	C	0.293350	0.303733	0.922247
	C3741	C	0.360963	0.268921	0.923583
	C3742	C	0.254077	0.295053	0.576300
	C3743	C	0.321316	0.265711	0.577517
	C3744	C	0.295600	0.262067	0.672318
	C3745	C	0.358152	0.324255	0.673769
	C3746	C	0.256857	0.244559	0.827077
	C3747	C	0.319349	0.307080	0.827790
	C3748	C	0.256922	0.244344	0.671961
	C3749	C	0.319367	0.307053	0.672733
	C3750	C	0.295573	0.262210	0.827257
	C3751	C	0.358100	0.324575	0.828343
	C3752	C	0.258664	0.294455	0.999428
	C3753	C	0.325948	0.263734	0.499945
	C3754	C	0.288702	0.305171	0.999944
	C3755	C	0.356304	0.270493	0.500977
	C3756	C	0.291325	0.258236	0.749657
	C3757	C	0.353867	0.320531	0.751111
	C3758	C	0.261204	0.247823	0.749696
	C3759	C	0.323682	0.310437	0.750406
	C3760	C	0.266285	0.296941	0.999738
	C3761	C	0.333683	0.264589	0.500064
	C3762	C	0.281009	0.303751	0.999845
	C3763	C	0.348568	0.269551	0.500567
	C3764	C	0.283783	0.254726	0.749413
	C3765	C	0.346318	0.317164	0.750955
	C3766	C	0.268805	0.250838	0.749704
	C3767	C	0.331298	0.313285	0.750458
	C3768	C	0.270095	0.298515	0.916877
	C3769	C	0.337468	0.266245	1.083127
	C3770	C	0.277291	0.301806	0.416022
	C3771	C	0.344663	0.268854	0.583532
	C3772	C	0.277240	0.301762	0.917007
	C3773	C	0.344681	0.268474	1.083448
	C3774	C	0.270137	0.298660	0.415977
	C3775	C	0.337448	0.266544	0.583395
	C3776	C	0.279892	0.254017	0.666633
	C3777	C	0.342417	0.316532	0.668086
	C3778	C	0.272699	0.251486	0.832831
	C3779	C	0.335209	0.313759	0.833329
	C3780	C	0.272641	0.252074	0.666491
	C3781	C	0.335164	0.314567	0.667662
	C3782	C	0.279947	0.253320	0.832467
	C3783	C	0.342467	0.315654	0.833558
	N3784	N	0.247159	0.297055	0.949892
	N3785	N	0.314485	0.269710	0.950826
	N3786	N	0.300224	0.300319	0.548374
	N3787	N	0.367784	0.265328	0.549951
	N3788	N	0.300205	0.300379	0.951427
	N3789	N	0.367824	0.265398	0.952700
	N3790	N	0.247186	0.296916	0.547857
	N3791	N	0.314468	0.269563	0.548598
	N3792	N	0.301750	0.268612	0.701398
	N3793	N	0.364299	0.330828	0.702793
	N3794	N	0.250596	0.238718	0.797806
	N3795	N	0.313058	0.301416	0.798824
	N3796	N	0.250633	0.238578	0.700811
	N3797	N	0.313076	0.301310	0.701610
	N3798	N	0.301734	0.268657	0.798342
	N3799	N	0.364279	0.330934	0.799676
	H3800	H	0.266223	0.496980	0.348311
	H3801	H	0.317816	0.357193	0.348094
	H3802	H	0.291137	0.411552	0.150558
	H3803	H	0.354489	0.366431	0.152646
	H3804	H	0.291181	0.411691	0.349349
	H3805	H	0.354608	0.367405	0.349761
	H3806	H	0.266182	0.496664	0.150607
	H3807	H	0.317799	0.356777	0.151979
	H3808	H	0.288418	0.357015	0.098677
	H3809	H	0.351029	0.418592	0.100440
	H3810	H	0.252405	0.338782	0.399989
	H3811	H	0.314896	0.401299	0.401930
	H3812	H	0.252463	0.338122	0.096702
	H3813	H	0.314991	0.400877	0.098337
	H3814	H	0.288316	0.357033	0.400161
	H3815	H	0.350747	0.420236	0.402086
	H3816	H	0.274592	0.469688	0.458947
	H3817	H	0.329977	0.359525	0.351604
	H3818	H	0.283273	0.439947	0.080344
	H3819	H	0.342279	0.366685	0.149611
	H3820	H	0.283196	0.440145	0.460185
	H3821	H	0.342437	0.365031	0.351937
	H3822	H	0.274724	0.469638	0.080240
	H3823	H	0.329726	0.361298	0.149060
	H3824	H	0.276448	0.352892	0.102725
	H3825	H	0.338903	0.415873	0.106117
	H3826	H	0.263824	0.347663	0.394569
	H3827	H	0.326421	0.409637	0.395778
	H3828	H	0.263882	0.347671	0.101999
	H3829	H	0.326354	0.410656	0.105298
	H3830	H	0.276415	0.352740	0.395117
	H3831	H	0.339008	0.414736	0.395959
	Co3832	Co	0.365006	0.436818	0.126422
	Co3833	Co	0.302515	0.374549	0.124692
	Co3834	Co	0.240010	0.311901	0.374012
	Co3835	Co	0.302503	0.374516	0.375357
	C3836	C	0.265427	0.499643	0.422075
	C3837	C	0.316517	0.357675	0.422317
	C3838	C	0.291937	0.408822	0.076728
	C3839	C	0.355837	0.365699	0.078484
	C3840	C	0.291942	0.408862	0.422666
	C3841	C	0.355844	0.366298	0.424124
	C3842	C	0.265403	0.499434	0.076613
	C3843	C	0.316529	0.357631	0.077157
	C3844	C	0.289600	0.357727	0.172410
	C3845	C	0.352163	0.419646	0.174602
	C3846	C	0.251382	0.336943	0.325640
	C3847	C	0.313895	0.399478	0.327590
	C3848	C	0.251428	0.336577	0.170918
	C3849	C	0.313930	0.399301	0.172770
	C3850	C	0.289554	0.357780	0.326412
	C3851	C	0.352033	0.420489	0.328727
	C3852	C	0.268518	0.489098	0.498995
	C3853	C	0.321165	0.357196	-0.000243
	C3854	C	0.288834	0.419318	0.499620
	C3855	C	0.351216	0.367627	0.001158
	C3856	C	0.285113	0.355693	0.249312
	C3857	C	0.347650	0.417946	0.251371
	C3858	C	0.255465	0.341793	0.248124
	C3859	C	0.317975	0.404345	0.250196
	C3860	C	0.273688	0.471446	0.499197
	C3861	C	0.328806	0.359589	0.000142
	C3862	C	0.283706	0.436999	0.499565
	C3863	C	0.343517	0.366284	0.000439
	C3864	C	0.277532	0.352988	0.249058
	C3865	C	0.340068	0.415303	0.251134
	C3866	C	0.262783	0.347055	0.248283
	C3867	C	0.325304	0.409450	0.250525
	C3868	C	0.276384	0.462955	0.476993
	C3869	C	0.332595	0.360962	0.417720
	C3870	C	0.281277	0.446133	0.045082
	C3871	C	0.339650	0.365160	0.083285
	C3872	C	0.281242	0.446191	0.477233
	C3873	C	0.339748	0.364142	0.417974
	C3874	C	0.276420	0.462867	0.045390
	C3875	C	0.332506	0.361999	0.083147
	C3876	C	0.273733	0.351767	0.167318
	C3877	C	0.336220	0.414425	0.170161
	C3878	C	0.266542	0.348743	0.330282
	C3879	C	0.329103	0.410875	0.331672
	C3880	C	0.266565	0.348879	0.166776
	C3881	C	0.329053	0.411568	0.169852
	C3882	C	0.273707	0.351650	0.330585
	C3883	C	0.336273	0.413754	0.331889
	N3884	N	0.260893	0.514842	0.451664
	N3885	N	0.309659	0.359538	0.450684
	N3886	N	0.296461	0.393506	0.047157
	N3887	N	0.362683	0.362355	0.050161
	N3888	N	0.296422	0.393492	0.452223
	N3889	N	0.362689	0.362948	0.453283
	N3890	N	0.260863	0.514663	0.047053
	N3891	N	0.309641	0.359526	0.048519
	N3892	N	0.296141	0.361183	0.201266
	N3893	N	0.358699	0.423259	0.203612
	N3894	N	0.245552	0.328810	0.296882
	N3895	N	0.308050	0.391529	0.298467
	N3896	N	0.245577	0.328662	0.200471
	N3897	N	0.308075	0.391404	0.201877
	N3898	N	0.296128	0.361172	0.298199
	N3899	N	0.358616	0.423771	0.300223
	H3900	H	0.266309	0.496553	0.848912
	H3901	H	0.317845	0.357493	0.847091
	H3902	H	0.291110	0.411644	0.650520
	H3903	H	0.354526	0.366563	0.653370
	H3904	H	0.291072	0.411524	0.848847
	H3905	H	0.354589	0.367387	0.849609
	H3906	H	0.266233	0.496692	0.650235
	H3907	H	0.317802	0.356785	0.651956
	H3908	H	0.288427	0.356354	0.598651
	H3909	H	0.350874	0.419252	0.600541
	H3910	H	0.252361	0.338785	0.900702
	H3911	H	0.314850	0.401441	0.900907
	H3912	H	0.252528	0.338082	0.597376
	H3913	H	0.314911	0.401032	0.597983
	H3914	H	0.288322	0.357152	0.900236
	H3915	H	0.350783	0.419663	0.902114
	H3916	H	0.274091	0.468060	0.920964
	H3917	H	0.329966	0.359504	0.851092
	H3918	H	0.282814	0.438849	0.539776
	H3919	H	0.342302	0.366287	0.649610
	H3920	H	0.282705	0.438592	0.920699
	H3921	H	0.342485	0.364859	0.851068
	H3922	H	0.274204	0.468405	0.539972
	H3923	H	0.329777	0.360869	0.649355
	H3924	H	0.276402	0.353109	0.603829
	H3925	H	0.338915	0.415600	0.603967
	H3926	H	0.263903	0.346675	0.895279
	H3927	H	0.326346	0.409880	0.896106
	H3928	H	0.263804	0.348106	0.603704
	H3929	H	0.326368	0.410432	0.603075
	H3930	H	0.276529	0.351779	0.895902
	H3931	H	0.338937	0.414815	0.896950
	Co3932	Co	0.364948	0.436798	0.626430
	Co3933	Co	0.302515	0.374460	0.623716
	Co3934	Co	0.239999	0.312034	0.873971
	Co3935	Co	0.302478	0.374555	0.874591
	C3936	C	0.265458	0.499394	0.922561
	C3937	C	0.316542	0.357909	0.921988
	C3938	C	0.291902	0.408824	0.576811
	C3939	C	0.355822	0.365901	0.579185
	C3940	C	0.291893	0.408820	0.922709
	C3941	C	0.355871	0.366188	0.923835
	C3942	C	0.265424	0.499474	0.576208
	C3943	C	0.316496	0.357452	0.577448
	C3944	C	0.289631	0.357250	0.672359
	C3945	C	0.352055	0.419957	0.674150
	C3946	C	0.251396	0.336807	0.826636
	C3947	C	0.313854	0.399535	0.826540
	C3948	C	0.251461	0.336571	0.671693
	C3949	C	0.313875	0.399435	0.672023
	C3950	C	0.289578	0.357625	0.826774
	C3951	C	0.352006	0.420123	0.828356
	C3952	C	0.268517	0.489028	1.000023
	C3953	C	0.321158	0.356929	0.500200
	C3954	C	0.288849	0.419237	0.999907
	C3955	C	0.351161	0.367667	0.501487
	C3956	C	0.285169	0.355219	0.749584
	C3957	C	0.347605	0.417853	0.750816
	C3958	C	0.255489	0.341709	0.749349
	C3959	C	0.317907	0.404486	0.749336
	C3960	C	0.273674	0.471357	1.000595
	C3961	C	0.328774	0.359389	0.500563
	C3962	C	0.283685	0.436877	1.000384
	C3963	C	0.343490	0.366189	0.501028
	C3964	C	0.277592	0.352510	0.749633
	C3965	C	0.340001	0.415309	0.750278
	C3966	C	0.262838	0.346793	0.749742
	C3967	C	0.325255	0.409605	0.749610
	C3968	C	0.276092	0.462079	0.955802
	C3969	C	0.332635	0.360959	0.917127
	C3970	C	0.281024	0.445526	0.521912
	C3971	C	0.339653	0.364865	0.583626
	C3972	C	0.280934	0.445317	0.955714
	C3973	C	0.339778	0.364184	0.917321
	C3974	C	0.276160	0.462277	0.521905
	C3975	C	0.332492	0.361666	0.583465
	C3976	C	0.273737	0.351680	0.668177
	C3977	C	0.336193	0.414305	0.668344
	C3978	C	0.266633	0.348109	0.831354
	C3979	C	0.329046	0.411058	0.831631
	C3980	C	0.266560	0.348922	0.668143
	C3981	C	0.329035	0.411516	0.667908
	C3982	C	0.273807	0.350901	0.831329
	C3983	C	0.336200	0.413877	0.832049
	N3984	N	0.260908	0.514673	0.951239
	N3985	N	0.309645	0.359727	0.950840
	N3986	N	0.296395	0.393479	0.547551
	N3987	N	0.362681	0.362750	0.550533
	N3988	N	0.296431	0.393539	0.951749
	N3989	N	0.362705	0.362661	0.952671
	N3990	N	0.260892	0.514758	0.547039
	N3991	N	0.309637	0.359398	0.548607
	N3992	N	0.296199	0.360841	0.700840
	N3993	N	0.358620	0.423340	0.703372
	N3994	N	0.245572	0.328816	0.796936
	N3995	N	0.307997	0.391544	0.797520
	N3996	N	0.245614	0.328656	0.700883
	N3997	N	0.308018	0.391465	0.700941
	N3998	N	0.296147	0.361090	0.798044
	N3999	N	0.358596	0.423479	0.800003
	H4000	H	0.265285	0.604889	0.347653
	H4001	H	0.328824	0.558942	0.350773
	H4002	H	0.302041	0.613935	0.152941
	H4003	H	0.353581	0.473895	0.152720
	H4004	H	0.302054	0.614084	0.348659
	H4005	H	0.353693	0.474475	0.351392
	H4006	H	0.265247	0.605144	0.151547
	H4007	H	0.328750	0.559144	0.152755
	H4008	H	0.304945	0.569947	0.099220
	H4009	H	0.367143	0.633250	0.097025
	H4010	H	0.268966	0.551681	0.400546
	H4011	H	0.331589	0.613516	0.402032
	H4012	H	0.269028	0.551192	0.098275
	H4013	H	0.331289	0.614835	0.100955
	H4014	H	0.304929	0.569814	0.403059
	H4015	H	0.367541	0.631610	0.399821
	H4016	H	0.277379	0.606187	0.649373
	H4017	H	0.336812	0.531177	0.577097
	H4018	H	0.289888	0.611894	0.149477
	H4019	H	0.345267	0.501289	0.129564
	H4020	H	0.289907	0.611285	0.649260
	H4021	H	0.345391	0.501620	0.576367
	H4022	H	0.277371	0.606538	0.149244
	H4023	H	0.336722	0.531022	0.129824
	H4024	H	0.293432	0.561765	0.105389
	H4025	H	0.355766	0.625927	0.394744
	H4026	H	0.280997	0.554620	0.395047
	H4027	H	0.343506	0.615972	0.105062
	H4028	H	0.280850	0.556690	0.104578
	H4029	H	0.343200	0.620888	0.395445
	H4030	H	0.293594	0.559771	0.395347
	H4031	H	0.356120	0.620919	0.104046
	Co4032	Co	0.379891	0.658918	0.122682
	Co4033	Co	0.317379	0.596360	0.126620
	Co4034	Co	0.254870	0.534026	0.374776
	Co4035	Co	0.317362	0.596319	0.377209
	C4036	C	0.263977	0.605927	0.422033
	C4037	C	0.327965	0.562005	0.424608
	C4038	C	0.303353	0.613334	0.078438
	C4039	C	0.354389	0.471055	0.079241
	C4040	C	0.303342	0.613293	0.423547
	C4041	C	0.354452	0.471491	0.425023
	C4042	C	0.263975	0.606069	0.077326
	C4043	C	0.327954	0.562072	0.079038
	C4044	C	0.305937	0.571587	0.173689
	C4045	C	0.368312	0.634545	0.170941
	C4046	C	0.267761	0.550893	0.326433
	C4047	C	0.330327	0.613087	0.328387
	C4048	C	0.267797	0.550685	0.172265
	C4049	C	0.330179	0.613756	0.174436
	C4050	C	0.305924	0.571556	0.328685
	C4051	C	0.368503	0.633707	0.325740
	C4052	C	0.268605	0.603977	0.500111
	C4053	C	0.331094	0.551704	0.002045
	C4054	C	0.298701	0.613886	0.500979
	C4055	C	0.351291	0.481582	0.002244
	C4056	C	0.301891	0.566616	0.251004
	C4057	C	0.364337	0.629179	0.248388
	C4058	C	0.272209	0.552983	0.249487
	C4059	C	0.334707	0.615585	0.251005
	C4060	C	0.276313	0.605147	0.500864
	C4061	C	0.336198	0.533944	0.002391
	C4062	C	0.291075	0.611545	0.500820
	C4063	C	0.346185	0.499340	0.002288
	C4064	C	0.294539	0.561475	0.250388
	C4065	C	0.357000	0.624079	0.249172
	C4066	C	0.279810	0.555617	0.249884
	C4067	C	0.342270	0.618350	0.250306
	C4068	C	0.280064	0.607021	0.583323
	C4069	C	0.338695	0.524904	0.544144
	C4070	C	0.287243	0.610558	0.083517
	C4071	C	0.343503	0.507937	0.073930
	C4072	C	0.287230	0.610050	0.583346
	C4073	C	0.343565	0.508146	0.544025
	C4074	C	0.280092	0.607380	0.083414
	C4075	C	0.338646	0.524777	0.073880
	C4076	C	0.290742	0.560242	0.169130
	C4077	C	0.353147	0.623702	0.330661
	C4078	C	0.283661	0.556263	0.331078
	C4079	C	0.346168	0.618197	0.168883
	C4080	C	0.283592	0.557393	0.168828
	C4081	C	0.345982	0.620913	0.331028
	C4082	C	0.290817	0.559112	0.331401
	C4083	C	0.353336	0.621006	0.168362
	N4084	N	0.257146	0.609626	0.450664
	N4085	N	0.323404	0.577232	0.453611
	N4086	N	0.310242	0.611349	0.050348
	N4087	N	0.358890	0.455752	0.049584
	N4088	N	0.310230	0.611363	0.452554
	N4089	N	0.358947	0.456101	0.454104
	N4090	N	0.257135	0.609551	0.048189
	N4091	N	0.323430	0.577336	0.049804
	N4092	N	0.311808	0.579533	0.203412
	N4093	N	0.374212	0.642295	0.199868
	N4094	N	0.261213	0.547358	0.297497
	N4095	N	0.323762	0.609651	0.300239
	N4096	N	0.261237	0.547278	0.200699
	N4097	N	0.323663	0.610030	0.203599
	N4098	N	0.311796	0.579515	0.299592
	N4099	N	0.374332	0.641773	0.296369
	H4100	H	0.265278	0.604738	0.847976
	H4101	H	0.328932	0.559429	0.851179
	H4102	H	0.301973	0.613854	0.653350
	H4103	H	0.353512	0.473747	0.653529
	H4104	H	0.302094	0.614465	0.848728
	H4105	H	0.353432	0.473845	0.851053
	H4106	H	0.265237	0.604782	0.652013
	H4107	H	0.328784	0.559263	0.652671
	H4108	H	0.305009	0.569698	0.600752
	H4109	H	0.367269	0.632812	0.596771
	H4110	H	0.268931	0.551656	0.900469
	H4111	H	0.331584	0.613624	0.901729
	H4112	H	0.269039	0.550978	0.599541
	H4113	H	0.331348	0.614296	0.599812
	H4114	H	0.304875	0.570328	0.903115
	H4115	H	0.367577	0.631761	0.900346
	H4116	H	0.277537	0.605029	0.852139
	H4117	H	0.337166	0.531983	0.875253
	H4118	H	0.290089	0.609891	0.352356
	H4119	H	0.345544	0.502146	0.427813
	H4120	H	0.290066	0.610231	0.852316
	H4121	H	0.345714	0.502402	0.874857
	H4122	H	0.277537	0.604873	0.352427
	H4123	H	0.336960	0.531664	0.427596
	H4124	H	0.293557	0.560045	0.896896
	H4125	H	0.356189	0.620600	0.604594
	H4126	H	0.280875	0.556477	0.605171
	H4127	H	0.343226	0.620699	0.895572
	H4128	H	0.281017	0.554570	0.896519
	H4129	H	0.343588	0.615523	0.605816
	H4130	H	0.293460	0.561674	0.605653
	H4131	H	0.355771	0.625810	0.895222
	Co4132	Co	0.379841	0.658879	0.623365
	Co4133	Co	0.317334	0.596449	0.626417
	Co4134	Co	0.254875	0.533749	0.874195
	Co4135	Co	0.317401	0.596372	0.877221
	C4136	C	0.264017	0.605956	0.922356
	C4137	C	0.328062	0.562242	0.924761
	C4138	C	0.303291	0.613135	0.578812
	C4139	C	0.354357	0.471094	0.579377
	C4140	C	0.303382	0.613627	0.923236
	C4141	C	0.354311	0.471024	0.925000
	C4142	C	0.263939	0.605831	0.577373
	C4143	C	0.327924	0.562150	0.579066
	C4144	C	0.305999	0.571460	0.674720
	C4145	C	0.368383	0.634160	0.671152
	C4146	C	0.267745	0.550851	0.826992
	C4147	C	0.330349	0.613151	0.828133
	C4148	C	0.267810	0.550547	0.673045
	C4149	C	0.330222	0.613506	0.674055
	C4150	C	0.305905	0.571799	0.829133
	C4151	C	0.368526	0.633582	0.825987
	C4152	C	0.268632	0.604237	1.000075
	C4153	C	0.331048	0.551663	0.502056
	C4154	C	0.298718	0.614250	1.000710
	C4155	C	0.351307	0.481771	0.502585
	C4156	C	0.301892	0.566611	0.751753
	C4157	C	0.364405	0.628982	0.748685
	C4158	C	0.272226	0.552808	0.750100
	C4159	C	0.334705	0.615485	0.750687
	C4160	C	0.276333	0.605444	1.000547
	C4161	C	0.336176	0.533948	0.502319
	C4162	C	0.291078	0.611960	1.000861
	C4163	C	0.346164	0.499439	0.502626
	C4164	C	0.294572	0.561379	0.751220
	C4165	C	0.357060	0.623896	0.749571
	C4166	C	0.279814	0.555511	0.750635
	C4167	C	0.342301	0.618113	0.750361
	C4168	C	0.280195	0.606503	0.917968
	C4169	C	0.338900	0.525342	0.931071
	C4170	C	0.287327	0.609211	0.418188
	C4171	C	0.343637	0.508437	0.460847
	C4172	C	0.287349	0.609593	0.918298
	C4173	C	0.343755	0.508526	0.930964
	C4174	C	0.280167	0.606190	0.418498
	C4175	C	0.338780	0.525207	0.460533
	C4176	C	0.290829	0.559128	0.832478
	C4177	C	0.353394	0.620737	0.668963
	C4178	C	0.283608	0.557247	0.669524
	C4179	C	0.346025	0.620663	0.831318
	C4180	C	0.283670	0.556214	0.832298
	C4181	C	0.346234	0.617860	0.669418
	C4182	C	0.290768	0.560160	0.669692
	C4183	C	0.353181	0.623495	0.831001
	N4184	N	0.257175	0.609491	0.950873
	N4185	N	0.323499	0.577444	0.953867
	N4186	N	0.310185	0.611246	0.550570
	N4187	N	0.358897	0.455865	0.549577
	N4188	N	0.310266	0.611493	0.952250
	N4189	N	0.358847	0.455771	0.954005
	N4190	N	0.257122	0.609540	0.547981
	N4191	N	0.323394	0.577383	0.549625
	N4192	N	0.311820	0.579556	0.704021
	N4193	N	0.374272	0.641985	0.700110
	N4194	N	0.261197	0.547358	0.798222
	N4195	N	0.323772	0.609675	0.799912
	N4196	N	0.261254	0.547146	0.701172
	N4197	N	0.323699	0.609913	0.703162
	N4198	N	0.311753	0.579759	0.800115
	N4199	N	0.374367	0.641597	0.796620
	H4200	H	0.260474	0.698376	0.347969
	H4201	H	0.327609	0.667105	0.349484
	H4202	H	0.297295	0.707047	0.154080
	H4203	H	0.364712	0.677198	0.150162
	H4204	H	0.297320	0.707993	0.350418
	H4205	H	0.364469	0.675857	0.346860
	H4206	H	0.260433	0.698062	0.152316
	H4207	H	0.327915	0.667673	0.153318
	H4208	H	0.299563	0.663299	0.100332
	H4209	H	0.361863	0.726606	0.097406
	H4210	H	0.262842	0.649196	0.401464
	H4211	H	0.325529	0.711137	0.403403
	H4212	H	0.263012	0.648421	0.098234
	H4213	H	0.325467	0.711100	0.100318
	H4214	H	0.299455	0.663649	0.403573
	H4215	H	0.362154	0.725343	0.401545
	H4216	H	0.272454	0.701869	0.648830
	H4217	H	0.339671	0.670573	0.352314
	H4218	H	0.284954	0.707405	0.149526
	H4219	H	0.352764	0.671184	0.147863
	H4220	H	0.285010	0.707040	0.649623
	H4221	H	0.352206	0.675688	0.351759
	H4222	H	0.272437	0.702437	0.148508
	H4223	H	0.340256	0.665985	0.148850
	H4224	H	0.287629	0.656808	0.399695
	H4225	H	0.350181	0.718238	0.101732
	H4226	H	0.274884	0.655524	0.100932
	H4227	H	0.337230	0.719319	0.399208
	H4228	H	0.274947	0.653034	0.398922
	H4229	H	0.337518	0.714497	0.102187
	H4230	H	0.287528	0.659172	0.101978
	H4231	H	0.349933	0.722814	0.398669
	Co4232	Co	0.374998	0.749843	0.124382
	Co4233	Co	0.312533	0.687168	0.126805
	Co4234	Co	0.249992	0.625001	0.374002
	Co4235	Co	0.312462	0.687330	0.377994
	C4236	C	0.259227	0.699031	0.422438
	C4237	C	0.326398	0.668150	0.424229
	C4238	C	0.298555	0.706153	0.079417
	C4239	C	0.365936	0.676153	0.075801
	C4240	C	0.298603	0.706697	0.424648
	C4241	C	0.365805	0.675307	0.421370
	C4242	C	0.259176	0.699027	0.077596
	C4243	C	0.326555	0.668394	0.078946
	C4244	C	0.300635	0.664774	0.174567
	C4245	C	0.363047	0.727678	0.172134
	C4246	C	0.261810	0.647552	0.326768
	C4247	C	0.324413	0.709761	0.329484
	C4248	C	0.261901	0.647195	0.172031
	C4249	C	0.324366	0.709786	0.174541
	C4250	C	0.300589	0.664870	0.329309
	C4251	C	0.363197	0.727001	0.326984
	C4252	C	0.263829	0.698344	0.500183
	C4253	C	0.331141	0.666466	0.000876
	C4254	C	0.293931	0.708388	0.501822
	C4255	C	0.361294	0.676458	-0.001588
	C4256	C	0.296307	0.661201	0.251707
	C4257	C	0.358804	0.723862	0.249951
	C4258	C	0.266169	0.650935	0.249644
	C4259	C	0.328671	0.713441	0.251753
	C4260	C	0.271462	0.700593	0.500609
	C4261	C	0.338862	0.667758	0.000082
	C4262	C	0.286197	0.707081	0.501340
	C4263	C	0.353647	0.674126	-0.000933
	C4264	C	0.288741	0.658081	0.251092
	C4265	C	0.351215	0.720683	0.250401
	C4266	C	0.273745	0.654122	0.250078
	C4267	C	0.336249	0.716678	0.251046
	C4268	C	0.275204	0.702609	0.583293
	C4269	C	0.342466	0.670499	0.417984
	C4270	C	0.282339	0.705960	0.083511
	C4271	C	0.349965	0.671142	0.082112
	C4272	C	0.282345	0.705750	0.583677
	C4273	C	0.349620	0.673545	0.417637
	C4274	C	0.275183	0.702948	0.083049
	C4275	C	0.342810	0.668128	0.082616
	C4276	C	0.284883	0.656542	0.333573
	C4277	C	0.347405	0.718481	0.167814
	C4278	C	0.277604	0.655777	0.167474
	C4279	C	0.340027	0.719082	0.333444
	C4280	C	0.277634	0.654581	0.333259
	C4281	C	0.340174	0.716386	0.168061
	C4282	C	0.284861	0.657691	0.167934
	C4283	C	0.347275	0.720975	0.333033
	N4284	N	0.252325	0.701015	0.450836
	N4285	N	0.319572	0.671749	0.453619
	N4286	N	0.305393	0.702550	0.050814
	N4287	N	0.372842	0.674054	0.046812
	N4288	N	0.305436	0.703067	0.453596
	N4289	N	0.372702	0.673508	0.449638
	N4290	N	0.252303	0.701056	0.048419
	N4291	N	0.319713	0.671880	0.050856
	N4292	N	0.306862	0.670823	0.203701
	N4293	N	0.369348	0.733420	0.200733
	N4294	N	0.255579	0.641545	0.297740
	N4295	N	0.318193	0.703560	0.300831
	N4296	N	0.255648	0.641313	0.200554
	N4297	N	0.318166	0.703551	0.203968
	N4298	N	0.306813	0.670956	0.300776
	N4299	N	0.369441	0.733000	0.297974
	H4300	H	0.260562	0.698689	0.847849
	H4301	H	0.327691	0.666777	0.849771
	H4302	H	0.297272	0.707297	0.653470
	H4303	H	0.364544	0.676887	0.651215
	H4304	H	0.297355	0.707751	0.850086
	H4305	H	0.364614	0.675824	0.845807
	H4306	H	0.260482	0.698312	0.651967
	H4307	H	0.327815	0.667601	0.653522
	H4308	H	0.299542	0.663616	0.599184
	H4309	H	0.362031	0.726703	0.597305
	H4310	H	0.262962	0.648884	0.901168
	H4311	H	0.325686	0.710797	0.903569
	H4312	H	0.263032	0.648678	0.597438
	H4313	H	0.325472	0.711383	0.599840
	H4314	H	0.299454	0.663570	0.903320
	H4315	H	0.362245	0.725490	0.901243
	H4316	H	0.272692	0.700719	0.851773
	H4317	H	0.339778	0.670052	0.851158
	H4318	H	0.285173	0.705958	0.352493
	H4319	H	0.352761	0.670635	0.647780
	H4320	H	0.285192	0.705808	0.852563
	H4321	H	0.352312	0.675139	0.850499
	H4322	H	0.272632	0.700793	0.352285
	H4323	H	0.340198	0.665689	0.648680
	H4324	H	0.287598	0.658559	0.601422
	H4325	H	0.350268	0.718233	0.601056
	H4326	H	0.274926	0.653742	0.899248
	H4327	H	0.337414	0.718863	0.899846
	H4328	H	0.274912	0.654852	0.600814
	H4329	H	0.337638	0.714495	0.602472
	H4330	H	0.287575	0.657493	0.899604
	H4331	H	0.350033	0.722448	0.899092
	Co4332	Co	0.375055	0.750235	0.624040
	Co4333	Co	0.312521	0.687555	0.626774
	Co4334	Co	0.250015	0.624812	0.874870
	Co4335	Co	0.312556	0.687236	0.877974
	C4336	C	0.259223	0.699253	0.922280
	C4337	C	0.326441	0.668065	0.923925
	C4338	C	0.298559	0.706434	0.579374
	C4339	C	0.365854	0.675914	0.576411
	C4340	C	0.298597	0.706451	0.924437
	C4341	C	0.365904	0.675395	0.920745
	C4342	C	0.259202	0.699018	0.577557
	C4343	C	0.326483	0.668484	0.579258
	C4344	C	0.300651	0.665029	0.673734
	C4345	C	0.363143	0.727770	0.671849
	C4346	C	0.261881	0.647335	0.827008
	C4347	C	0.324519	0.709556	0.829434
	C4348	C	0.261903	0.647212	0.672038
	C4349	C	0.324414	0.709851	0.674739
	C4350	C	0.300625	0.664977	0.828860
	C4351	C	0.363260	0.727132	0.826706
	C4352	C	0.263821	0.698409	1.000056
	C4353	C	0.331087	0.666583	0.501342
	C4354	C	0.293945	0.708198	1.001630
	C4355	C	0.361206	0.676290	0.499237
	C4356	C	0.296335	0.661354	0.751024
	C4357	C	0.358891	0.723816	0.749392
	C4358	C	0.266198	0.650940	0.749550
	C4359	C	0.328789	0.713292	0.751644
	C4360	C	0.271449	0.700771	1.000183
	C4361	C	0.338789	0.667743	0.500573
	C4362	C	0.286223	0.707120	1.001054
	C4363	C	0.353562	0.674013	0.499924
	C4364	C	0.288748	0.658164	0.750521
	C4365	C	0.351345	0.720573	0.749947
	C4366	C	0.273759	0.654154	0.749877
	C4367	C	0.336368	0.716468	0.751034
	C4368	C	0.275303	0.702165	0.917780
	C4369	C	0.342543	0.670312	0.917078
	C4370	C	0.282452	0.705145	0.418436
	C4371	C	0.349926	0.670779	0.582365
	C4372	C	0.282465	0.705135	0.918263
	C4373	C	0.349712	0.673317	0.916500
	C4374	C	0.275303	0.702042	0.418066
	C4375	C	0.342751	0.667851	0.582655
	C4376	C	0.284882	0.657372	0.667370
	C4377	C	0.347541	0.718333	0.667540
	C4378	C	0.277621	0.654897	0.832954
	C4379	C	0.340155	0.718740	0.833583
	C4380	C	0.277624	0.655440	0.667121
	C4381	C	0.340291	0.716290	0.668051
	C4382	C	0.284877	0.656867	0.833305
	C4383	C	0.347408	0.720743	0.833018
	N4384	N	0.252333	0.701192	0.950533
	N4385	N	0.319629	0.671626	0.953466
	N4386	N	0.305394	0.702964	0.550858
	N4387	N	0.372733	0.673864	0.547530
	N4388	N	0.305431	0.702771	0.953567
	N4389	N	0.372814	0.673560	0.948945
	N4390	N	0.252305	0.700991	0.548687
	N4391	N	0.319625	0.671999	0.551020
	N4392	N	0.306848	0.671212	0.703342
	N4393	N	0.369374	0.733757	0.700403
	N4394	N	0.255664	0.641227	0.797853
	N4395	N	0.318282	0.703556	0.801069
	N4396	N	0.255666	0.641219	0.700947
	N4397	N	0.318195	0.703830	0.703906
	N4398	N	0.306859	0.671052	0.800339
	N4399	N	0.369448	0.733352	0.797905
	H4400	H	0.271388	0.900634	0.349487
	H4401	H	0.322973	0.760289	0.350291
	H4402	H	0.296256	0.815821	0.152943
	H4403	H	0.359835	0.770530	0.151351
	H4404	H	0.296388	0.815924	0.349869
	H4405	H	0.359696	0.768792	0.347623
	H4406	H	0.271363	0.900606	0.151788
	H4407	H	0.323014	0.761139	0.153802
	H4408	H	0.293610	0.760823	0.101127
	H4409	H	0.356052	0.823410	0.100859
	H4410	H	0.257498	0.742711	0.401719
	H4411	H	0.320388	0.804329	0.403562
	H4412	H	0.257681	0.742173	0.098802
	H4413	H	0.319922	0.805488	0.099995
	H4414	H	0.293502	0.761291	0.402503
	H4415	H	0.356069	0.823353	0.401894
	H4416	H	0.279576	0.873119	0.628319
	H4417	H	0.334762	0.766464	0.353901
	H4418	H	0.287893	0.842746	-0.035212
	H4419	H	0.347839	0.766899	0.148194
	H4420	H	0.288104	0.843508	0.628410
	H4421	H	0.347307	0.771551	0.353300
	H4422	H	0.279319	0.872333	-0.035927
	H4423	H	0.335310	0.761814	0.149022
	H4424	H	0.281689	0.755827	0.396932
	H4425	H	0.343860	0.822193	0.395959
	H4426	H	0.269010	0.752429	0.105400
	H4427	H	0.331891	0.810840	0.106009
	H4428	H	0.269130	0.750605	0.396408
	H4429	H	0.331266	0.817130	0.395784
	H4430	H	0.281581	0.757680	0.106103
	H4431	H	0.344448	0.816077	0.106656
	Co4432	Co	0.370174	0.840973	0.125816
	Co4433	Co	0.307647	0.778585	0.126984
	Co4434	Co	0.245135	0.716017	0.375004
	Co4435	Co	0.307707	0.778499	0.377794
	C4436	C	0.270599	0.903561	0.423421
	C4437	C	0.321654	0.761331	0.424987
	C4438	C	0.297074	0.812867	0.078990
	C4439	C	0.361080	0.769163	0.076845
	C4440	C	0.297143	0.812990	0.423944
	C4441	C	0.360999	0.768344	0.422259
	C4442	C	0.270594	0.903509	0.077741
	C4443	C	0.321700	0.761679	0.079087
	C4444	C	0.294782	0.761583	0.174881
	C4445	C	0.357268	0.824099	0.174498
	C4446	C	0.256546	0.740898	0.327436
	C4447	C	0.319199	0.803080	0.329176
	C4448	C	0.256620	0.740669	0.172811
	C4449	C	0.319020	0.803505	0.174370
	C4450	C	0.294730	0.761778	0.328946
	C4451	C	0.357281	0.824038	0.328476
	C4452	C	0.273722	0.893194	0.500341
	C4453	C	0.326312	0.760780	0.001247
	C4454	C	0.293973	0.823296	0.501110
	C4455	C	0.356424	0.770612	-0.000592
	C4456	C	0.290330	0.759487	0.251872
	C4457	C	0.352835	0.821818	0.251506
	C4458	C	0.260660	0.745699	0.250296
	C4459	C	0.323170	0.808300	0.251402
	C4460	C	0.278846	0.875479	0.500061
	C4461	C	0.333961	0.763107	0.001003
	C4462	C	0.288830	0.840936	0.500718
	C4463	C	0.348710	0.769477	0.000139
	C4464	C	0.282749	0.756735	0.251645
	C4465	C	0.345247	0.819097	0.251431
	C4466	C	0.268007	0.750812	0.250897
	C4467	C	0.330512	0.813334	0.250924
	C4468	C	0.281416	0.866624	0.571973
	C4469	C	0.337578	0.766355	0.419346
	C4470	C	0.286135	0.849396	-0.019285
	C4471	C	0.345038	0.766724	0.082707
	C4472	C	0.286269	0.849850	0.572225
	C4473	C	0.344735	0.769418	0.419128
	C4474	C	0.281284	0.866197	-0.019686
	C4475	C	0.337887	0.763711	0.083167
	C4476	C	0.278964	0.754994	0.332665
	C4477	C	0.341272	0.819605	0.332177
	C4478	C	0.271752	0.753103	0.169838
	C4479	C	0.334448	0.813310	0.170097
	C4480	C	0.271798	0.752166	0.332292
	C4481	C	0.334102	0.816770	0.331851
	C4482	C	0.278908	0.755986	0.170141
	C4483	C	0.341609	0.816179	0.170409
	N4484	N	0.266089	0.918894	0.452654
	N4485	N	0.314778	0.763414	0.453879
	N4486	N	0.301618	0.797591	0.050032
	N4487	N	0.367918	0.765473	0.047992
	N4488	N	0.301681	0.797747	0.453531
	N4489	N	0.367860	0.764999	0.450322
	N4490	N	0.266061	0.918767	0.048412
	N4491	N	0.314798	0.763532	0.051135
	N4492	N	0.301337	0.765056	0.203829
	N4493	N	0.363821	0.827623	0.203275
	N4494	N	0.250718	0.732879	0.298282
	N4495	N	0.313326	0.795218	0.300567
	N4496	N	0.250759	0.732740	0.201918
	N4497	N	0.313202	0.795490	0.204133
	N4498	N	0.301285	0.765258	0.300511
	N4499	N	0.363830	0.827545	0.299673
	H4500	H	0.271451	0.900773	0.850047
	H4501	H	0.322917	0.760169	0.849656
	H4502	H	0.296145	0.815636	0.652198
	H4503	H	0.359949	0.770968	0.651488
	H4504	H	0.296268	0.815466	0.851237
	H4505	H	0.359734	0.769267	0.847551
	H4506	H	0.271497	0.900846	0.650784
	H4507	H	0.323047	0.761363	0.654496
	H4508	H	0.293659	0.760458	0.600925
	H4509	H	0.355960	0.823775	0.600488
	H4510	H	0.257594	0.742276	0.901494
	H4511	H	0.320238	0.804275	0.903060
	H4512	H	0.257648	0.742783	0.598307
	H4513	H	0.319905	0.805692	0.599609
	H4514	H	0.293574	0.760973	0.902956
	H4515	H	0.356023	0.823363	0.901569
	H4516	H	0.279778	0.873620	1.037490
	H4517	H	0.334820	0.766142	0.853100
	H4518	H	0.288098	0.843397	0.372313
	H4519	H	0.347819	0.766767	0.649374
	H4520	H	0.288354	0.844109	1.037802
	H4521	H	0.347356	0.771584	0.852474
	H4522	H	0.279508	0.872861	0.371570
	H4523	H	0.335252	0.761821	0.649923
	H4524	H	0.281618	0.757676	0.606908
	H4525	H	0.344334	0.816405	0.606644
	H4526	H	0.269129	0.750271	0.895948
	H4527	H	0.331239	0.816953	0.895415
	H4528	H	0.269008	0.752710	0.606146
	H4529	H	0.331801	0.811182	0.606794
	H4530	H	0.281701	0.755198	0.896889
	H4531	H	0.343820	0.822010	0.895741
	Co4532	Co	0.370159	0.841010	0.625877
	Co4533	Co	0.307643	0.778675	0.626820
	Co4534	Co	0.245161	0.716037	0.874595
	Co4535	Co	0.307699	0.778398	0.877255
	C4536	C	0.270639	0.903629	0.923531
	C4537	C	0.321640	0.761185	0.924113
	C4538	C	0.297022	0.812815	0.578529
	C4539	C	0.361114	0.769382	0.577093
	C4540	C	0.297103	0.812715	0.924715
	C4541	C	0.361040	0.768544	0.921716
	C4542	C	0.270662	0.903695	0.577390
	C4543	C	0.321705	0.761851	0.580191
	C4544	C	0.294806	0.761334	0.675071
	C4545	C	0.357210	0.824142	0.673928
	C4546	C	0.256611	0.740756	0.827368
	C4547	C	0.319166	0.802969	0.829076
	C4548	C	0.256606	0.741002	0.672541
	C4549	C	0.318982	0.803767	0.674254
	C4550	C	0.294782	0.761561	0.829199
	C4551	C	0.357256	0.824017	0.827875
	C4552	C	0.273743	0.893166	1.000637
	C4553	C	0.326305	0.760911	0.502248
	C4554	C	0.293980	0.823243	1.001637
	C4555	C	0.356406	0.770670	0.500166
	C4556	C	0.290366	0.759199	0.752203
	C4557	C	0.352815	0.821839	0.751181
	C4558	C	0.260665	0.745780	0.750138
	C4559	C	0.323134	0.808328	0.751515
	C4560	C	0.278869	0.875458	1.000609
	C4561	C	0.333938	0.763324	0.501918
	C4562	C	0.288831	0.840898	1.001249
	C4563	C	0.348691	0.769581	0.501370
	C4564	C	0.282780	0.756502	0.751880
	C4565	C	0.345219	0.819242	0.751448
	C4566	C	0.268015	0.750822	0.750881
	C4567	C	0.330466	0.813401	0.751182
	C4568	C	0.281553	0.866912	1.021145
	C4569	C	0.337612	0.766278	0.918573
	C4570	C	0.286250	0.849748	0.428457
	C4571	C	0.345019	0.766819	0.584070
	C4572	C	0.286406	0.850128	1.021512
	C4573	C	0.344762	0.769372	0.918000
	C4574	C	0.281391	0.866520	0.428222
	C4575	C	0.337851	0.763880	0.584386
	C4576	C	0.278934	0.755971	0.670732
	C4577	C	0.341542	0.816504	0.670497
	C4578	C	0.271820	0.751878	0.832133
	C4579	C	0.334085	0.816690	0.831688
	C4580	C	0.271767	0.753202	0.670114
	C4581	C	0.334380	0.813676	0.670500
	C4582	C	0.278984	0.754685	0.832574
	C4583	C	0.341248	0.819600	0.831866
	N4584	N	0.266084	0.918821	0.952976
	N4585	N	0.314760	0.763248	0.953011
	N4586	N	0.301601	0.797634	0.549551
	N4587	N	0.367926	0.765610	0.547731
	N4588	N	0.301630	0.797495	0.954223
	N4589	N	0.367889	0.765098	0.950602
	N4590	N	0.266128	0.918933	0.548178
	N4591	N	0.314815	0.763694	0.551795
	N4592	N	0.301335	0.765011	0.703563
	N4593	N	0.363787	0.827512	0.702302
	N4594	N	0.250754	0.732912	0.797993
	N4595	N	0.313294	0.795192	0.800052
	N4596	N	0.250734	0.733078	0.701558
	N4597	N	0.313161	0.795688	0.703759
	N4598	N	0.301315	0.765128	0.800317
	N4599	N	0.363808	0.827413	0.799196
	H4600	H	0.270402	1.007930	0.347958
	H4601	H	0.333980	0.963257	0.347664
	H4602	H	0.307225	1.017995	0.151266
	H4603	H	0.358787	0.878122	0.151376
	H4604	H	0.307233	1.018020	0.347581
	H4605	H	0.358802	0.877884	0.348978
	H4606	H	0.270446	1.007947	0.151827
	H4607	H	0.333644	0.962531	0.149653
	H4608	H	0.310072	0.973621	0.099352
	H4609	H	0.372640	1.036295	0.098430
	H4610	H	0.274109	0.955406	0.401049
	H4611	H	0.336660	1.018222	0.399327
	H4612	H	0.274167	0.954923	0.100257
	H4613	H	0.336729	1.016705	0.097857
	H4614	H	0.310043	0.973996	0.401905
	H4615	H	0.372491	1.036823	0.401915
	H4616	H	0.282663	1.008646	0.350896
	H4617	H	0.342339	0.936091	0.504437
	H4618	H	0.295199	1.013824	-0.148908
	H4619	H	0.350260	0.904834	0.092917
	H4620	H	0.295231	1.013904	0.350879
	H4621	H	0.350974	0.906623	0.504613
	H4622	H	0.282669	1.008407	-0.148302
	H4623	H	0.341698	0.934504	0.092316
	H4624	H	0.298564	0.965326	0.105674
	H4625	H	0.361117	1.027796	0.102799
	H4626	H	0.286149	0.958489	0.396096
	H4627	H	0.348587	1.021302	0.394259
	H4628	H	0.285973	0.960066	0.105391
	H4629	H	0.348591	1.022495	0.102718
	H4630	H	0.298723	0.963441	0.396599
	H4631	H	0.361172	1.026540	0.395598
	Co4632	Co	0.384986	1.063215	0.124950
	Co4633	Co	0.322490	1.000037	0.124231
	Co4634	Co	0.259974	0.937866	0.375705
	Co4635	Co	0.322529	1.000360	0.374536
	C4636	C	0.269154	1.009046	0.422565
	C4637	C	0.333143	0.966027	0.421595
	C4638	C	0.308503	1.017210	0.077008
	C4639	C	0.359592	0.875165	0.077819
	C4640	C	0.308514	1.017263	0.422012
	C4641	C	0.359607	0.875158	0.422938
	C4642	C	0.269234	1.008813	0.077706
	C4643	C	0.332977	0.965575	0.075921
	C4644	C	0.311080	0.975278	0.173346
	C4645	C	0.373632	1.038096	0.172683
	C4646	C	0.272905	0.954711	0.327255
	C4647	C	0.335437	1.017316	0.325470
	C4648	C	0.272928	0.954521	0.173440
	C4649	C	0.335495	1.016634	0.171606
	C4650	C	0.311067	0.975476	0.327825
	C4651	C	0.373550	1.038293	0.327528
	C4652	C	0.273786	1.007478	0.499804
	C4653	C	0.336205	0.955434	-0.000888
	C4654	C	0.303880	1.017825	0.499386
	C4655	C	0.356479	0.885467	0.000513
	C4656	C	0.307027	0.970310	0.250672
	C4657	C	0.369561	1.033151	0.249882
	C4658	C	0.277337	0.956816	0.250312
	C4659	C	0.339881	1.019239	0.248598
	C4660	C	0.281485	1.008931	0.499878
	C4661	C	0.341356	0.937776	-0.000913
	C4662	C	0.296227	1.015406	0.499593
	C4663	C	0.351332	0.903153	-0.000008
	C4664	C	0.299697	0.965104	0.250853
	C4665	C	0.362225	1.027844	0.249366
	C4666	C	0.284939	0.959342	0.250512
	C4667	C	0.347487	1.021929	0.248567
	C4668	C	0.285333	1.010069	0.416855
	C4669	C	0.344105	0.929364	0.502334
	C4670	C	0.292494	1.013124	-0.082937
	C4671	C	0.348573	0.911612	0.052158
	C4672	C	0.292483	1.013157	0.416886
	C4673	C	0.348975	0.912585	0.502447
	C4674	C	0.285365	1.009885	-0.082705
	C4675	C	0.343728	0.928399	0.051399
	C4676	C	0.295878	0.963769	0.169618
	C4677	C	0.358445	1.026327	0.167443
	C4678	C	0.288821	0.959990	0.331906
	C4679	C	0.351304	1.022806	0.330310
	C4680	C	0.288720	0.960931	0.169462
	C4681	C	0.351302	1.023423	0.167066
	C4682	C	0.295985	0.962855	0.331939
	C4683	C	0.358456	1.025723	0.330689
	N4684	N	0.262289	1.012314	0.451289
	N4685	N	0.328593	0.981227	0.451058
	N4686	N	0.315406	1.015284	0.048905
	N4687	N	0.364132	0.859914	0.048541
	N4688	N	0.315387	1.015363	0.450555
	N4689	N	0.364102	0.859887	0.452687
	N4690	N	0.262368	1.012085	0.049178
	N4691	N	0.328502	0.980993	0.046776
	N4692	N	0.316885	0.983419	0.202191
	N4693	N	0.379445	1.046285	0.202245
	N4694	N	0.266333	0.951303	0.298740
	N4695	N	0.328871	1.013697	0.296845
	N4696	N	0.266348	0.951214	0.201977
	N4697	N	0.328926	1.013284	0.200553
	N4698	N	0.316890	0.983492	0.298413
	N4699	N	0.379380	1.046400	0.298771
	H4700	H	0.270433	1.007742	0.848679
	H4701	H	0.334149	0.963439	0.848153
	H4702	H	0.307213	1.017932	0.651626
	H4703	H	0.358799	0.878266	0.650451
	H4704	H	0.307294	1.018288	0.847349
	H4705	H	0.358759	0.877940	0.850189
	H4706	H	0.270409	1.008025	0.652049
	H4707	H	0.333877	0.962989	0.649964
	H4708	H	0.310029	0.973723	0.598091
	H4709	H	0.372615	1.036376	0.597362
	H4710	H	0.274132	0.955409	0.901294
	H4711	H	0.336568	1.018265	0.900025
	H4712	H	0.274106	0.955609	0.599397
	H4713	H	0.336736	1.017149	0.599212
	H4714	H	0.310066	0.973775	0.901163
	H4715	H	0.372459	1.036549	0.901045
	H4716	H	0.282629	1.009704	1.148295
	H4717	H	0.342436	0.936041	0.906631
	H4718	H	0.295095	1.015213	0.648829
	H4719	H	0.350421	0.905205	0.493358
	H4720	H	0.295082	1.015312	1.148185
	H4721	H	0.351019	0.906463	0.907115
	H4722	H	0.282586	1.009998	0.649300
	H4723	H	0.341816	0.934684	0.492353
	H4724	H	0.298713	0.963993	0.895820
	H4725	H	0.360991	1.028461	0.603798
	H4726	H	0.285984	0.960527	0.604596
	H4727	H	0.348628	1.020907	0.895108
	H4728	H	0.286113	0.958934	0.895924
	H4729	H	0.348451	1.022852	0.604237
	H4730	H	0.298521	0.965721	0.604719
	H4731	H	0.361218	1.026341	0.894360
	Co4732	Co	0.385019	1.063071	0.624540
	Co4733	Co	0.322463	1.000144	0.623787
	Co4734	Co	0.260005	0.937790	0.876078
	Co4735	Co	0.322532	1.000308	0.874540
	C4736	C	0.269210	1.008813	0.922886
	C4737	C	0.333222	0.966061	0.922071
	C4738	C	0.308496	1.017166	0.577027
	C4739	C	0.359595	0.875275	0.577076
	C4740	C	0.308544	1.017378	0.922034
	C4741	C	0.359597	0.875053	0.923479
	C4742	C	0.269170	1.009043	0.577427
	C4743	C	0.333090	0.965867	0.575925
	C4744	C	0.311066	0.975508	0.672453
	C4745	C	0.373606	1.038085	0.671803
	C4746	C	0.272912	0.954742	0.827739
	C4747	C	0.335365	1.017330	0.826399
	C4748	C	0.272898	0.954834	0.673383
	C4749	C	0.335433	1.016820	0.672451
	C4750	C	0.311112	0.975487	0.827356
	C4751	C	0.373528	1.038261	0.826714
	C4752	C	0.273822	1.007232	1.000109
	C4753	C	0.336235	0.955529	0.498818
	C4754	C	0.303911	1.017996	0.999375
	C4755	C	0.356525	0.885716	0.499631
	C4756	C	0.307025	0.970468	0.749957
	C4757	C	0.369483	1.033157	0.749182
	C4758	C	0.277365	0.956985	0.750507
	C4759	C	0.339840	1.019281	0.749613
	C4760	C	0.281521	1.008693	1.000006
	C4761	C	0.341374	0.937899	0.498810
	C4762	C	0.296255	1.015483	0.999361
	C4763	C	0.351405	0.903352	0.499037
	C4764	C	0.299687	0.965406	0.750052
	C4765	C	0.362160	1.027978	0.749146
	C4766	C	0.284958	0.959520	0.750465
	C4767	C	0.347432	1.021914	0.749698
	C4768	C	0.285327	1.010600	1.082430
	C4769	C	0.344137	0.929317	0.947157
	C4770	C	0.292422	1.013915	0.582704
	C4771	C	0.348681	0.911878	0.495862
	C4772	C	0.292447	1.013869	1.082009
	C4773	C	0.348972	0.912486	0.947475
	C4774	C	0.285274	1.010856	0.582894
	C4775	C	0.343800	0.928641	0.495594
	C4776	C	0.295975	0.963251	0.831516
	C4777	C	0.358350	1.026696	0.668259
	C4778	C	0.288700	0.961293	0.669038
	C4779	C	0.351301	1.022609	0.830637
	C4780	C	0.288806	0.960378	0.831781
	C4781	C	0.351192	1.023708	0.668401
	C4782	C	0.295863	0.964164	0.668738
	C4783	C	0.358462	1.025622	0.830294
	N4784	N	0.262346	1.012069	0.951786
	N4785	N	0.328642	0.981276	0.951155
	N4786	N	0.315378	1.015335	0.548603
	N4787	N	0.364096	0.859957	0.548234
	N4788	N	0.315433	1.015349	0.950830
	N4789	N	0.364128	0.859815	0.952795
	N4790	N	0.262297	1.012325	0.548803
	N4791	N	0.328541	0.981080	0.546646
	N4792	N	0.316936	0.983367	0.701331
	N4793	N	0.379408	1.046198	0.701391
	N4794	N	0.266344	0.951336	0.799059
	N4795	N	0.328817	1.013792	0.797314
	N4796	N	0.266343	0.951404	0.702333
	N4797	N	0.328862	1.013447	0.700773
	N4798	N	0.316950	0.983467	0.797818
	N4799	N	0.379367	1.046269	0.797807
	H4800	H	0.395407	0.132769	0.348093
	H4801	H	0.458765	0.088048	0.350040
	H4802	H	0.432130	0.142687	0.152179
	H4803	H	0.483785	0.003127	0.150184
	H4804	H	0.432174	0.143139	0.348901
	H4805	H	0.483851	0.003513	0.348253
	H4806	H	0.395402	0.133528	0.152199
	H4807	H	0.458893	0.088218	0.152030
	H4808	H	0.435091	0.098787	0.099111
	H4809	H	0.497366	0.162318	0.097895
	H4810	H	0.399208	0.080305	0.400840
	H4811	H	0.461758	0.142327	0.400938
	H4812	H	0.399105	0.080966	0.099414
	H4813	H	0.461587	0.143193	0.099580
	H4814	H	0.435029	0.098974	0.402103
	H4815	H	0.497718	0.160983	0.401060
	H4816	H	0.407622	0.134320	0.649311
	H4817	H	0.466159	0.058561	0.429738
	H4818	H	0.420083	0.140083	0.148289
	H4819	H	0.475777	0.031110	-0.002469
	H4820	H	0.420139	0.139773	0.649749
	H4821	H	0.474742	0.029034	0.429521
	H4822	H	0.407559	0.134870	0.148423
	H4823	H	0.467185	0.060709	-0.001340
	H4824	H	0.423583	0.090270	0.104982
	H4825	H	0.486008	0.154402	0.394509
	H4826	H	0.411122	0.084089	0.395585
	H4827	H	0.473727	0.145257	0.105517
	H4828	H	0.410993	0.085325	0.104769
	H4829	H	0.473442	0.148946	0.394093
	H4830	H	0.423684	0.089355	0.395492
	H4831	H	0.486291	0.150645	0.105428
	Co4832	Co	0.509962	0.188179	0.124079
	Co4833	Co	0.447514	0.125350	0.125793
	Co4834	Co	0.384988	0.063203	0.375762
	Co4835	Co	0.447488	0.125422	0.376341
	C4836	C	0.394145	0.133920	0.422766
	C4837	C	0.458024	0.090941	0.423801
	C4838	C	0.433455	0.142060	0.077705
	C4839	C	0.484595	0.000398	0.076240
	C4840	C	0.433475	0.142378	0.423433
	C4841	C	0.484631	0.000501	0.422193
	C4842	C	0.394111	0.134287	0.078016
	C4843	C	0.458119	0.091056	0.078087
	C4844	C	0.436119	0.100490	0.173581
	C4845	C	0.498495	0.163574	0.172129
	C4846	C	0.397952	0.079847	0.327146
	C4847	C	0.460463	0.141955	0.327449
	C4848	C	0.397906	0.080132	0.173166
	C4849	C	0.460387	0.142390	0.173329
	C4850	C	0.436078	0.100594	0.327899
	C4851	C	0.498662	0.162957	0.326898
	C4852	C	0.398785	0.132423	0.500403
	C4853	C	0.461191	0.080636	0.000801
	C4854	C	0.428858	0.142926	0.501016
	C4855	C	0.481511	0.010851	-0.000697
	C4856	C	0.432053	0.095561	0.250601
	C4857	C	0.494506	0.158302	0.249854
	C4858	C	0.402353	0.082135	0.250059
	C4859	C	0.464884	0.144328	0.250226
	C4860	C	0.406487	0.133756	0.500723
	C4861	C	0.466333	0.062936	0.000424
	C4862	C	0.421229	0.140397	0.501132
	C4863	C	0.476323	0.028415	-0.000379
	C4864	C	0.424700	0.090472	0.250164
	C4865	C	0.487181	0.153193	0.250100
	C4866	C	0.409964	0.084723	0.250131
	C4867	C	0.472461	0.147007	0.249995
	C4868	C	0.410292	0.135515	0.583504
	C4869	C	0.468430	0.053062	0.460835
	C4870	C	0.417408	0.138913	0.082451
	C4871	C	0.473820	0.037419	-0.001134
	C4872	C	0.417445	0.138615	0.583775
	C4873	C	0.473289	0.036296	0.460597
	C4874	C	0.410260	0.135834	0.082670
	C4875	C	0.468964	0.054175	-0.000749
	C4876	C	0.420898	0.089022	0.168930
	C4877	C	0.483354	0.152352	0.330791
	C4878	C	0.413808	0.085623	0.331488
	C4879	C	0.476349	0.147339	0.169293
	C4880	C	0.413752	0.086192	0.168885
	C4881	C	0.476200	0.149285	0.330612
	C4882	C	0.420963	0.088403	0.331239
	C4883	C	0.483501	0.150357	0.169146
	N4884	N	0.387300	0.137268	0.451534
	N4885	N	0.453522	0.106262	0.453170
	N4886	N	0.440333	0.140281	0.049389
	N4887	N	0.489138	-0.014817	0.046874
	N4888	N	0.440357	0.140473	0.452089
	N4889	N	0.489137	-0.014847	0.451090
	N4890	N	0.387259	0.137322	0.049052
	N4891	N	0.453595	0.106342	0.048869
	N4892	N	0.441975	0.108476	0.202916
	N4893	N	0.504359	0.171437	0.201211
	N4894	N	0.391383	0.076418	0.298506
	N4895	N	0.453885	0.138679	0.299331
	N4896	N	0.391348	0.076614	0.201945
	N4897	N	0.453846	0.138864	0.202394
	N4898	N	0.441942	0.108545	0.299022
	N4899	N	0.504485	0.170989	0.297385
	H4900	H	0.395393	0.132699	0.848359
	H4901	H	0.458797	0.088101	0.849993
	H4902	H	0.432184	0.142989	0.653090
	H4903	H	0.483730	0.002941	0.650404
	H4904	H	0.432152	0.143020	0.848034
	H4905	H	0.483723	0.003142	0.848332
	H4906	H	0.395423	0.133328	0.652562
	H4907	H	0.458977	0.088482	0.651167
	H4908	H	0.435113	0.098895	0.599139
	H4909	H	0.497456	0.162056	0.597562
	H4910	H	0.399136	0.080055	0.901061
	H4911	H	0.461760	0.142218	0.901521
	H4912	H	0.399108	0.081170	0.600256
	H4913	H	0.461756	0.143047	0.600155
	H4914	H	0.435082	0.098849	0.902326
	H4915	H	0.497745	0.160691	0.900009
	H4916	H	0.407610	0.133945	0.851447
	H4917	H	0.466878	0.060193	1.003000
	H4918	H	0.420166	0.139332	0.352704
	H4919	H	0.476562	0.032948	0.570755
	H4920	H	0.420118	0.139253	0.851601
	H4921	H	0.475468	0.030585	1.001640
	H4922	H	0.407662	0.133850	0.352127
	H4923	H	0.467987	0.062580	0.570993
	H4924	H	0.423659	0.090162	0.605392
	H4925	H	0.486297	0.150700	0.604483
	H4926	H	0.411087	0.084193	0.895900
	H4927	H	0.473512	0.148403	0.895847
	H4928	H	0.411048	0.085080	0.605090
	H4929	H	0.473746	0.145468	0.605085
	H4930	H	0.423674	0.089086	0.895961
	H4931	H	0.486110	0.153585	0.895252
	Co4932	Co	0.510008	0.188311	0.624169
	Co4933	Co	0.447514	0.125383	0.625326
	Co4934	Co	0.384928	0.063088	0.875392
	Co4935	Co	0.447516	0.125422	0.876145
	C4936	C	0.394110	0.133858	0.922842
	C4937	C	0.458058	0.091001	0.923909
	C4938	C	0.433477	0.142364	0.578621
	C4939	C	0.484581	0.000209	0.576562
	C4940	C	0.433465	0.142252	0.922559
	C4941	C	0.484565	0.000450	0.922016
	C4942	C	0.394143	0.134105	0.577891
	C4943	C	0.458137	0.091149	0.577653
	C4944	C	0.436100	0.100466	0.673318
	C4945	C	0.498562	0.163463	0.671594
	C4946	C	0.397915	0.079713	0.827526
	C4947	C	0.460492	0.141932	0.827703
	C4948	C	0.397875	0.080311	0.673555
	C4949	C	0.460456	0.142268	0.673498
	C4950	C	0.436114	0.100396	0.828129
	C4951	C	0.498727	0.162882	0.826193
	C4952	C	0.398738	0.132597	1.000518
	C4953	C	0.461177	0.080622	0.500575
	C4954	C	0.428826	0.142761	1.000016
	C4955	C	0.481510	0.010784	0.499574
	C4956	C	0.432064	0.095413	0.750612
	C4957	C	0.494562	0.158075	0.749254
	C4958	C	0.402314	0.082304	0.750480
	C4959	C	0.464942	0.144346	0.750713
	C4960	C	0.406452	0.133994	1.000251
	C4961	C	0.466335	0.062995	0.500400
	C4962	C	0.421188	0.140492	0.999740
	C4963	C	0.476371	0.028461	0.499923
	C4964	C	0.424720	0.090327	0.750614
	C4965	C	0.487261	0.152868	0.749920
	C4966	C	0.409925	0.084807	0.750551
	C4967	C	0.472519	0.146920	0.750746
	C4968	C	0.410272	0.135288	0.917334
	C4969	C	0.468807	0.053941	1.001655
	C4970	C	0.417452	0.138303	0.418428
	C4971	C	0.474303	0.038401	0.539633
	C4972	C	0.417419	0.138408	0.917349
	C4973	C	0.473655	0.037141	1.001225
	C4974	C	0.410307	0.135122	0.418330
	C4975	C	0.469442	0.055185	0.539911
	C4976	C	0.420929	0.088786	0.669547
	C4977	C	0.483551	0.150235	0.669022
	C4978	C	0.413782	0.085575	0.831694
	C4979	C	0.476274	0.148921	0.831687
	C4980	C	0.413749	0.086102	0.669431
	C4981	C	0.476376	0.147286	0.669211
	C4982	C	0.420952	0.088307	0.831747
	C4983	C	0.483449	0.151867	0.831222
	N4984	N	0.387244	0.137097	0.951410
	N4985	N	0.453548	0.106303	0.953183
	N4986	N	0.440365	0.140411	0.549909
	N4987	N	0.489097	-0.015017	0.546876
	N4988	N	0.440339	0.140396	0.951430
	N4989	N	0.489114	-0.014820	0.951037
	N4990	N	0.387296	0.137324	0.549000
	N4991	N	0.453598	0.106419	0.548545
	N4992	N	0.441927	0.108560	0.702606
	N4993	N	0.504401	0.171449	0.700715
	N4994	N	0.391358	0.076353	0.798834
	N4995	N	0.453938	0.138680	0.799077
	N4996	N	0.391329	0.076630	0.701996
	N4997	N	0.453890	0.138840	0.702287
	N4998	N	0.441962	0.108476	0.798976
	N4999	N	0.504502	0.171103	0.796838
	H5000	H	0.390281	0.230776	0.348305
	H5001	H	0.457790	0.195104	0.349546
	H5002	H	0.427390	0.235248	0.153488
	H5003	H	0.494733	0.206062	0.151361
	H5004	H	0.427378	0.235243	0.350032
	H5005	H	0.494620	0.205140	0.347549
	H5006	H	0.390259	0.230110	0.152680
	H5007	H	0.457978	0.195853	0.152532
	H5008	H	0.429533	0.191522	0.099160
	H5009	H	0.491856	0.254520	0.097188
	H5010	H	0.392898	0.176916	0.401944
	H5011	H	0.455516	0.239353	0.402639
	H5012	H	0.392930	0.177151	0.098952
	H5013	H	0.455351	0.239667	0.099268
	H5014	H	0.429478	0.191704	0.403414
	H5015	H	0.492085	0.253663	0.400882
	H5016	H	0.402534	0.230775	0.351691
	H5017	H	0.470222	0.194721	0.648550
	H5018	H	0.415138	0.234959	0.150835
	H5019	H	0.482760	0.200770	0.148894
	H5020	H	0.415158	0.234416	0.352195
	H5021	H	0.482799	0.200021	0.648359
	H5022	H	0.402430	0.231405	0.149937
	H5023	H	0.470232	0.195392	0.148644
	H5024	H	0.417486	0.187294	0.101891
	H5025	H	0.480084	0.247418	0.100321
	H5026	H	0.404891	0.182768	0.400081
	H5027	H	0.467205	0.247257	0.399749
	H5028	H	0.404809	0.183892	0.101602
	H5029	H	0.467411	0.243899	0.100821
	H5030	H	0.417534	0.186119	0.400332
	H5031	H	0.479899	0.250835	0.399227
	Co5032	Co	0.505110	0.277524	0.123058
	Co5033	Co	0.442631	0.214898	0.126097
	Co5034	Co	0.380156	0.152496	0.375545
	Co5035	Co	0.442633	0.214977	0.377587
	C5036	C	0.389001	0.231592	0.422889
	C5037	C	0.456556	0.196302	0.424200
	C5038	C	0.428664	0.234127	0.079124
	C5039	C	0.495985	0.205142	0.076672
	C5040	C	0.428647	0.234232	0.424231
	C5041	C	0.495913	0.204552	0.421920
	C5042	C	0.388985	0.231213	0.078003
	C5043	C	0.456693	0.196467	0.078050
	C5044	C	0.430653	0.192950	0.173746
	C5045	C	0.493032	0.255763	0.171585
	C5046	C	0.391879	0.175454	0.327580
	C5047	C	0.454392	0.237899	0.328469
	C5048	C	0.391893	0.175555	0.173070
	C5049	C	0.454327	0.237984	0.173888
	C5050	C	0.430638	0.192933	0.328873
	C5051	C	0.493165	0.255266	0.326555
	C5052	C	0.393626	0.229686	0.500673
	C5053	C	0.461279	0.194816	0.000467
	C5054	C	0.424004	0.236020	0.501736
	C5055	C	0.491364	0.205417	-0.000547
	C5056	C	0.426321	0.189514	0.251077
	C5057	C	0.488750	0.252185	0.249403
	C5058	C	0.396153	0.179406	0.250535
	C5059	C	0.458638	0.241774	0.250873
	C5060	C	0.401339	0.230660	0.501004
	C5061	C	0.468999	0.196232	0.000129
	C5062	C	0.416264	0.235285	0.501490
	C5063	C	0.483716	0.202898	-0.000110
	C5064	C	0.418701	0.186633	0.251060
	C5065	C	0.481152	0.249286	0.249805
	C5066	C	0.403691	0.182818	0.250879
	C5067	C	0.466172	0.245287	0.250406
	C5068	C	0.405208	0.231663	0.418191
	C5069	C	0.472856	0.196723	0.582895
	C5070	C	0.412439	0.234087	0.084432
	C5071	C	0.480010	0.200307	0.082872
	C5072	C	0.412436	0.233856	0.418327
	C5073	C	0.480014	0.199884	0.582704
	C5074	C	0.405196	0.232002	0.083833
	C5075	C	0.472873	0.197134	0.082883
	C5076	C	0.414803	0.186117	0.168075
	C5077	C	0.477336	0.247415	0.166671
	C5078	C	0.407569	0.183632	0.333822
	C5079	C	0.469964	0.247304	0.333426
	C5080	C	0.407544	0.184182	0.168083
	C5081	C	0.470084	0.245400	0.167163
	C5082	C	0.414820	0.185539	0.333991
	C5083	C	0.477213	0.249325	0.333064
	N5084	N	0.382149	0.234922	0.451472
	N5085	N	0.449728	0.199644	0.453463
	N5086	N	0.435495	0.230445	0.050275
	N5087	N	0.502878	0.203231	0.048105
	N5088	N	0.435480	0.230528	0.453279
	N5089	N	0.502811	0.202882	0.450241
	N5090	N	0.382158	0.234778	0.048916
	N5091	N	0.449817	0.199705	0.049809
	N5092	N	0.436929	0.198696	0.202972
	N5093	N	0.499340	0.261379	0.200124
	N5094	N	0.385730	0.169041	0.298552
	N5095	N	0.448208	0.231561	0.300127
	N5096	N	0.385732	0.169113	0.201619
	N5097	N	0.448191	0.231504	0.203181
	N5098	N	0.436913	0.198773	0.300186
	N5099	N	0.499424	0.261117	0.297148
	H5100	H	0.390294	0.230704	0.848236
	H5101	H	0.457851	0.195087	0.849086
	H5102	H	0.427329	0.235190	0.653562
	H5103	H	0.494656	0.205923	0.651565
	H5104	H	0.427425	0.235230	0.849514
	H5105	H	0.494630	0.205033	0.847371
	H5106	H	0.390255	0.230033	0.652160
	H5107	H	0.457963	0.195966	0.653354
	H5108	H	0.429545	0.191698	0.599463
	H5109	H	0.491889	0.254738	0.597080
	H5110	H	0.392950	0.177033	0.902228
	H5111	H	0.455553	0.239008	0.903660
	H5112	H	0.392981	0.177067	0.598656
	H5113	H	0.455367	0.239676	0.600092
	H5114	H	0.429482	0.191699	0.902915
	H5115	H	0.492155	0.253636	0.901439
	H5116	H	0.402541	0.230917	0.851469
	H5117	H	0.469973	0.197900	0.851611
	H5118	H	0.415112	0.235031	0.650840
	H5119	H	0.482371	0.203911	0.351266
	H5120	H	0.415194	0.234756	0.851741
	H5121	H	0.482511	0.203403	0.851000
	H5122	H	0.402451	0.231471	0.650319
	H5123	H	0.469862	0.198624	0.351977
	H5124	H	0.417475	0.186981	0.601243
	H5125	H	0.479919	0.250867	0.899462
	H5126	H	0.404823	0.182991	0.899616
	H5127	H	0.467424	0.243406	0.602127
	H5128	H	0.404779	0.183443	0.601356
	H5129	H	0.467247	0.247192	0.900096
	H5130	H	0.417494	0.186270	0.899784
	H5131	H	0.480099	0.247127	0.601024
	Co5132	Co	0.505072	0.277619	0.623267
	Co5133	Co	0.442562	0.215109	0.626502
	Co5134	Co	0.380089	0.152578	0.875432
	Co5135	Co	0.442637	0.214882	0.877484
	C5136	C	0.389019	0.231586	0.922663
	C5137	C	0.456639	0.196212	0.923363
	C5138	C	0.428641	0.234215	0.579249
	C5139	C	0.495934	0.205006	0.577075
	C5140	C	0.428677	0.234142	0.923982
	C5141	C	0.495950	0.204599	0.921822
	C5142	C	0.388974	0.231090	0.577946
	C5143	C	0.456639	0.196623	0.579094
	C5144	C	0.430626	0.193011	0.673717
	C5145	C	0.493028	0.255740	0.671696
	C5146	C	0.391863	0.175563	0.827678
	C5147	C	0.454428	0.237820	0.829201
	C5148	C	0.391867	0.175474	0.673189
	C5149	C	0.454321	0.238123	0.674437
	C5150	C	0.430596	0.193065	0.828595
	C5151	C	0.493175	0.255176	0.826569
	C5152	C	0.393638	0.229785	1.000567
	C5153	C	0.461231	0.194831	0.501317
	C5154	C	0.424027	0.235939	1.001572
	C5155	C	0.491294	0.205399	0.499553
	C5156	C	0.426260	0.189625	0.750949
	C5157	C	0.488782	0.252039	0.749482
	C5158	C	0.396131	0.179407	0.750362
	C5159	C	0.458615	0.241740	0.751527
	C5160	C	0.401375	0.230677	1.000662
	C5161	C	0.468940	0.196224	0.500349
	C5162	C	0.416290	0.235232	1.001443
	C5163	C	0.483675	0.202891	0.499991
	C5164	C	0.418671	0.186686	0.750546
	C5165	C	0.481168	0.249109	0.750158
	C5166	C	0.403674	0.182873	0.750264
	C5167	C	0.466183	0.245164	0.751025
	C5168	C	0.405235	0.231778	0.917607
	C5169	C	0.472734	0.198546	0.917284
	C5170	C	0.412403	0.234271	0.584434
	C5171	C	0.479786	0.202048	0.417406
	C5172	C	0.412465	0.233993	0.918129
	C5173	C	0.479862	0.201759	0.917114
	C5174	C	0.405163	0.232084	0.584107
	C5175	C	0.472638	0.198897	0.417583
	C5176	C	0.414777	0.186087	0.667591
	C5177	C	0.477252	0.249137	0.833197
	C5178	C	0.407534	0.183737	0.833430
	C5179	C	0.470108	0.245165	0.667831
	C5180	C	0.407519	0.184101	0.667426
	C5181	C	0.470012	0.247207	0.833755
	C5182	C	0.414797	0.185583	0.833414
	C5183	C	0.477344	0.247192	0.667523
	N5184	N	0.382168	0.234965	0.951600
	N5185	N	0.449786	0.199513	0.952506
	N5186	N	0.435474	0.230600	0.550441
	N5187	N	0.502827	0.203121	0.548332
	N5188	N	0.435499	0.230427	0.953024
	N5189	N	0.502857	0.202967	0.950082
	N5190	N	0.382130	0.234725	0.548779
	N5191	N	0.449772	0.199857	0.550810
	N5192	N	0.436890	0.198788	0.702877
	N5193	N	0.499324	0.261452	0.700143
	N5194	N	0.385681	0.169237	0.798710
	N5195	N	0.448241	0.231453	0.800697
	N5196	N	0.385693	0.169143	0.701783
	N5197	N	0.448162	0.231616	0.703735
	N5198	N	0.436881	0.198826	0.800025
	N5199	N	0.499404	0.261150	0.797248
	H5200	H	0.385041	0.327705	0.348746
	H5201	H	0.452712	0.292671	0.349456
	H5202	H	0.422286	0.332259	0.153304
	H5203	H	0.489956	0.298101	0.151306
	H5204	H	0.422138	0.331854	0.349089
	H5205	H	0.489776	0.297305	0.348069
	H5206	H	0.385152	0.326801	0.152795
	H5207	H	0.452883	0.293260	0.153031
	H5208	H	0.424595	0.288425	0.099447
	H5209	H	0.486976	0.350897	0.097382
	H5210	H	0.387978	0.274444	0.402363
	H5211	H	0.450501	0.336156	0.403040
	H5212	H	0.388030	0.273847	0.099070
	H5213	H	0.450249	0.337271	0.099938
	H5214	H	0.424571	0.288259	0.402745
	H5215	H	0.487140	0.350381	0.400979
	H5216	H	0.397247	0.327979	0.649854
	H5217	H	0.464861	0.295198	0.351104
	H5218	H	0.410053	0.331278	0.151029
	H5219	H	0.477780	0.295904	0.149782
	H5220	H	0.409878	0.331686	0.649682
	H5221	H	0.477504	0.299043	0.350584
	H5222	H	0.397408	0.327572	0.150708
	H5223	H	0.465132	0.291946	0.149802
	H5224	H	0.412643	0.282623	0.399762
	H5225	H	0.475058	0.346626	0.399397
	H5226	H	0.399946	0.279374	0.101815
	H5227	H	0.462484	0.340508	0.101126
	H5228	H	0.399987	0.279379	0.399893
	H5229	H	0.462347	0.343418	0.400803
	H5230	H	0.412632	0.282812	0.102042
	H5231	H	0.475150	0.343876	0.100077
	Co5232	Co	0.500019	0.374828	0.123141
	Co5233	Co	0.437535	0.312538	0.126360
	Co5234	Co	0.374991	0.250341	0.376202
	Co5235	Co	0.437479	0.312472	0.376860
	C5236	C	0.383775	0.328532	0.422927
	C5237	C	0.451490	0.293839	0.423769
	C5238	C	0.423550	0.331199	0.078882
	C5239	C	0.491186	0.296791	0.076834
	C5240	C	0.423422	0.330983	0.423518
	C5241	C	0.491115	0.296539	0.421683
	C5242	C	0.383898	0.328239	0.078465
	C5243	C	0.451577	0.294026	0.078665
	C5244	C	0.425665	0.289917	0.173888
	C5245	C	0.488105	0.352229	0.171695
	C5246	C	0.386850	0.272935	0.328281
	C5247	C	0.449405	0.334829	0.328558
	C5248	C	0.386889	0.272585	0.173220
	C5249	C	0.449267	0.335478	0.174275
	C5250	C	0.425650	0.289727	0.328333
	C5251	C	0.488188	0.352061	0.326768
	C5252	C	0.388429	0.326502	0.500299
	C5253	C	0.456173	0.292090	0.000784
	C5254	C	0.418778	0.332646	0.500768
	C5255	C	0.486518	0.298588	-0.000367
	C5256	C	0.421376	0.286096	0.250739
	C5257	C	0.483848	0.348448	0.249602
	C5258	C	0.391182	0.276434	0.250666
	C5259	C	0.453647	0.338788	0.251330
	C5260	C	0.396165	0.327128	0.500500
	C5261	C	0.463886	0.293157	0.000177
	C5262	C	0.411062	0.331720	0.500334
	C5263	C	0.478783	0.297876	-0.000040
	C5264	C	0.413805	0.282979	0.250719
	C5265	C	0.476252	0.345353	0.249948
	C5266	C	0.398781	0.279437	0.250710
	C5267	C	0.461238	0.341788	0.250914
	C5268	C	0.399973	0.328506	0.583566
	C5269	C	0.467637	0.295275	0.417354
	C5270	C	0.407342	0.330541	0.084568
	C5271	C	0.475025	0.295732	0.083274
	C5272	C	0.407199	0.330644	0.583482
	C5273	C	0.474862	0.297565	0.417161
	C5274	C	0.400115	0.328356	0.084419
	C5275	C	0.467794	0.293519	0.083460
	C5276	C	0.409930	0.281969	0.333722
	C5277	C	0.472345	0.345257	0.333347
	C5278	C	0.402646	0.280247	0.167987
	C5279	C	0.465164	0.341854	0.167453
	C5280	C	0.402656	0.280320	0.333644
	C5281	C	0.465074	0.343558	0.333956
	C5282	C	0.409910	0.282048	0.167970
	C5283	C	0.472429	0.343646	0.166906
	N5284	N	0.376960	0.332197	0.451593
	N5285	N	0.444658	0.297335	0.453131
	N5286	N	0.430385	0.327689	0.050044
	N5287	N	0.498004	0.293098	0.047583
	N5288	N	0.430273	0.327614	0.452734
	N5289	N	0.497949	0.292800	0.450152
	N5290	N	0.377059	0.331975	0.049663
	N5291	N	0.444718	0.297253	0.050256
	N5292	N	0.431891	0.295981	0.202762
	N5293	N	0.494324	0.358457	0.200180
	N5294	N	0.380639	0.266700	0.299260
	N5295	N	0.443162	0.328891	0.300349
	N5296	N	0.380675	0.266510	0.202331
	N5297	N	0.443068	0.329230	0.203036
	N5298	N	0.431869	0.295951	0.299928
	N5299	N	0.494391	0.358269	0.297257
	H5300	H	0.385180	0.327612	0.848939
	H5301	H	0.452782	0.291832	0.849120
	H5302	H	0.422074	0.332199	0.652441
	H5303	H	0.489890	0.298235	0.650717
	H5304	H	0.422283	0.331847	0.849912
	H5305	H	0.489857	0.297681	0.847167
	H5306	H	0.385011	0.326837	0.652380
	H5307	H	0.452859	0.293299	0.652872
	H5308	H	0.424635	0.288405	0.600096
	H5309	H	0.486946	0.350867	0.597465
	H5310	H	0.387938	0.274398	0.902770
	H5311	H	0.450591	0.335942	0.903682
	H5312	H	0.388022	0.273840	0.599081
	H5313	H	0.450344	0.337302	0.600105
	H5314	H	0.424609	0.288318	0.902803
	H5315	H	0.487187	0.350392	0.901479
	H5316	H	0.397434	0.327534	0.851722
	H5317	H	0.464896	0.294959	0.850645
	H5318	H	0.410000	0.330698	0.351577
	H5319	H	0.477813	0.295747	0.649786
	H5320	H	0.410069	0.331542	0.851932
	H5321	H	0.477534	0.298961	0.850282
	H5322	H	0.397345	0.327003	0.351590
	H5323	H	0.465152	0.291990	0.649806
	H5324	H	0.412669	0.282555	0.899659
	H5325	H	0.475187	0.343751	0.601560
	H5326	H	0.399922	0.279783	0.601822
	H5327	H	0.462374	0.343700	0.900563
	H5328	H	0.399968	0.279392	0.900150
	H5329	H	0.462491	0.340433	0.601902
	H5330	H	0.412640	0.283127	0.601772
	H5331	H	0.475040	0.346891	0.899867
	Co5332	Co	0.500011	0.374770	0.623604
	Co5333	Co	0.437511	0.312780	0.626246
	Co5334	Co	0.374976	0.250313	0.875961
	Co5335	Co	0.437572	0.312221	0.877038
	C5336	C	0.383900	0.328498	0.923448
	C5337	C	0.451532	0.293364	0.923592
	C5338	C	0.423388	0.331052	0.578555
	C5339	C	0.491171	0.296915	0.576645
	C5340	C	0.423536	0.330952	0.924161
	C5341	C	0.491128	0.296651	0.921806
	C5342	C	0.383786	0.328227	0.577952
	C5343	C	0.451557	0.294151	0.578765
	C5344	C	0.425724	0.289766	0.674090
	C5345	C	0.488137	0.352129	0.671831
	C5346	C	0.386857	0.272905	0.827935
	C5347	C	0.449443	0.334734	0.829362
	C5348	C	0.386899	0.272648	0.673606
	C5349	C	0.449295	0.335530	0.674645
	C5350	C	0.425670	0.289858	0.828524
	C5351	C	0.488244	0.351965	0.826868
	C5352	C	0.388537	0.326438	1.000900
	C5353	C	0.456176	0.292244	0.501000
	C5354	C	0.418909	0.332782	1.001546
	C5355	C	0.486510	0.298668	0.499436
	C5356	C	0.421402	0.286124	0.751057
	C5357	C	0.483885	0.348428	0.749673
	C5358	C	0.391187	0.276367	0.750763
	C5359	C	0.453673	0.338753	0.751691
	C5360	C	0.396286	0.327160	1.001196
	C5361	C	0.463894	0.293211	0.500708
	C5362	C	0.411178	0.331898	1.001449
	C5363	C	0.478779	0.297866	0.500195
	C5364	C	0.413808	0.282952	0.750750
	C5365	C	0.476297	0.345454	0.750296
	C5366	C	0.398781	0.279458	0.750824
	C5367	C	0.461251	0.341880	0.751169
	C5368	C	0.400131	0.328446	0.918010
	C5369	C	0.467653	0.295310	0.916811
	C5370	C	0.407253	0.330243	0.417520
	C5371	C	0.475043	0.295653	0.583506
	C5372	C	0.407349	0.330736	0.918191
	C5373	C	0.474879	0.297522	0.916765
	C5374	C	0.400028	0.327998	0.417709
	C5375	C	0.467804	0.293556	0.583700
	C5376	C	0.409930	0.281953	0.833629
	C5377	C	0.472441	0.343697	0.667780
	C5378	C	0.402656	0.280487	0.667891
	C5379	C	0.465106	0.343673	0.833954
	C5380	C	0.402661	0.280234	0.833768
	C5381	C	0.465170	0.341888	0.668136
	C5382	C	0.409911	0.282248	0.667845
	C5383	C	0.472383	0.345352	0.833589
	N5384	N	0.377058	0.332133	0.952322
	N5385	N	0.444683	0.296821	0.952783
	N5386	N	0.430260	0.327615	0.549658
	N5387	N	0.497980	0.293047	0.547331
	N5388	N	0.430377	0.327490	0.952844
	N5389	N	0.497962	0.292952	0.950191
	N5390	N	0.376974	0.332063	0.549018
	N5391	N	0.444702	0.297566	0.550181
	N5392	N	0.431923	0.296066	0.702988
	N5393	N	0.494364	0.358325	0.700219
	N5394	N	0.380640	0.266721	0.799060
	N5395	N	0.443194	0.328759	0.800601
	N5396	N	0.380665	0.266587	0.702064
	N5397	N	0.443107	0.329262	0.703364
	N5398	N	0.431897	0.295987	0.799857
	N5399	N	0.494426	0.358270	0.797224
	H5400	H	0.380357	0.419781	0.349638
	H5401	H	0.447529	0.389040	0.349816
	H5402	H	0.417049	0.429614	0.153524
	H5403	H	0.484739	0.394844	0.151341
	H5404	H	0.417111	0.429593	0.349778
	H5405	H	0.484649	0.393954	0.347828
	H5406	H	0.380322	0.419283	0.153410
	H5407	H	0.447626	0.390169	0.154357
	H5408	H	0.419577	0.385507	0.099765
	H5409	H	0.481761	0.448631	0.098076
	H5410	H	0.382893	0.371457	0.402602
	H5411	H	0.445544	0.432877	0.404190
	H5412	H	0.383032	0.370537	0.099007
	H5413	H	0.445311	0.433763	0.100005
	H5414	H	0.419467	0.385517	0.403134
	H5415	H	0.482272	0.446822	0.400948
	H5416	H	0.392415	0.422745	0.352696
	H5417	H	0.459674	0.391465	0.351923
	H5418	H	0.404863	0.428255	0.150998
	H5419	H	0.472328	0.395582	-0.149132
	H5420	H	0.404924	0.428145	0.352613
	H5421	H	0.472291	0.395412	0.351574
	H5422	H	0.392342	0.422938	0.150559
	H5423	H	0.459700	0.391476	-0.148535
	H5424	H	0.407629	0.379579	0.102297
	H5425	H	0.470145	0.440419	0.101330
	H5426	H	0.394931	0.375866	0.399701
	H5427	H	0.457343	0.440078	0.401026
	H5428	H	0.394967	0.376046	0.101644
	H5429	H	0.457493	0.436618	0.102319
	H5430	H	0.407655	0.379328	0.400326
	H5431	H	0.470019	0.443388	0.400620
	Co5432	Co	0.494867	0.472351	0.123038
	Co5433	Co	0.432378	0.410060	0.127193
	Co5434	Co	0.369842	0.347964	0.376368
	Co5435	Co	0.432368	0.409879	0.377766
	C5436	C	0.379063	0.420252	0.424018
	C5437	C	0.446289	0.390411	0.424588
	C5438	C	0.418335	0.428430	0.079541
	C5439	C	0.486000	0.393578	0.077260
	C5440	C	0.418366	0.428525	0.424222
	C5441	C	0.485941	0.393226	0.421995
	C5442	C	0.379030	0.420034	0.078544
	C5443	C	0.446359	0.391119	0.079649
	C5444	C	0.420601	0.387016	0.174246
	C5445	C	0.482998	0.449724	0.172385
	C5446	C	0.381831	0.369810	0.328178
	C5447	C	0.444391	0.431762	0.329574
	C5448	C	0.381920	0.369296	0.173254
	C5449	C	0.444277	0.432240	0.174580
	C5450	C	0.420583	0.386871	0.329208
	C5451	C	0.483236	0.448834	0.326797
	C5452	C	0.383664	0.419516	0.501657
	C5453	C	0.450968	0.388941	0.001986
	C5454	C	0.413723	0.430087	0.501620
	C5455	C	0.481338	0.395126	-0.000066
	C5456	C	0.416360	0.383072	0.251604
	C5457	C	0.478833	0.445356	0.250106
	C5458	C	0.386176	0.372931	0.250775
	C5459	C	0.448676	0.435362	0.251824
	C5460	C	0.391292	0.421978	0.501861
	C5461	C	0.458710	0.389589	0.001222
	C5462	C	0.406006	0.428698	0.501720
	C5463	C	0.473607	0.394214	0.000513
	C5464	C	0.408781	0.379664	0.251450
	C5465	C	0.471269	0.442050	0.250837
	C5466	C	0.393790	0.375840	0.250850
	C5467	C	0.456267	0.438203	0.251399
	C5468	C	0.395086	0.423807	0.418886
	C5469	C	0.462428	0.391545	0.418170
	C5470	C	0.402183	0.427229	0.084606
	C5471	C	0.469696	0.393859	-0.082692
	C5472	C	0.402210	0.427101	0.418765
	C5473	C	0.469658	0.393802	0.417796
	C5474	C	0.395042	0.424029	0.084475
	C5475	C	0.462470	0.391671	-0.082351
	C5476	C	0.404925	0.378631	0.168430
	C5477	C	0.467438	0.440210	0.167950
	C5478	C	0.397672	0.376756	0.333895
	C5479	C	0.460089	0.440137	0.334449
	C5480	C	0.397671	0.376751	0.167856
	C5481	C	0.460187	0.438180	0.168217
	C5482	C	0.404914	0.378617	0.334362
	C5483	C	0.467367	0.441914	0.334032
	N5484	N	0.372171	0.422061	0.452234
	N5485	N	0.439463	0.394305	0.453806
	N5486	N	0.425184	0.425036	0.050756
	N5487	N	0.492842	0.390099	0.047581
	N5488	N	0.425234	0.425290	0.453301
	N5489	N	0.492776	0.389923	0.450284
	N5490	N	0.372141	0.421918	0.050281
	N5491	N	0.439522	0.394629	0.051371
	N5492	N	0.426769	0.393391	0.203429
	N5493	N	0.489211	0.455940	0.200209
	N5494	N	0.375529	0.364089	0.299253
	N5495	N	0.438082	0.426150	0.300927
	N5496	N	0.375586	0.363717	0.202081
	N5497	N	0.438007	0.426445	0.203734
	N5498	N	0.426743	0.393388	0.300383
	N5499	N	0.489353	0.455411	0.297220
	H5500	H	0.380296	0.419485	0.849089
	H5501	H	0.447526	0.389191	0.850637
	H5502	H	0.417055	0.429433	0.653773
	H5503	H	0.484792	0.394769	0.651133
	H5504	H	0.417100	0.429335	0.850331
	H5505	H	0.484589	0.394103	0.847684
	H5506	H	0.380300	0.419167	0.653205
	H5507	H	0.447649	0.390267	0.654198
	H5508	H	0.419532	0.385557	0.600024
	H5509	H	0.481855	0.448508	0.598204
	H5510	H	0.382855	0.371295	0.902399
	H5511	H	0.445622	0.432739	0.903939
	H5512	H	0.382979	0.370641	0.598512
	H5513	H	0.445272	0.434016	0.599716
	H5514	H	0.419486	0.385315	0.903555
	H5515	H	0.482169	0.447320	0.901156
	H5516	H	0.392395	0.423018	0.852284
	H5517	H	0.460013	0.388393	1.150826
	H5518	H	0.404890	0.428317	0.650745
	H5519	H	0.472630	0.392001	0.650238
	H5520	H	0.404876	0.428521	0.852652
	H5521	H	0.472668	0.392053	1.149968
	H5522	H	0.392355	0.423075	0.650967
	H5523	H	0.459951	0.388466	0.650847
	H5524	H	0.407631	0.379258	0.900269
	H5525	H	0.470043	0.443389	0.899168
	H5526	H	0.394946	0.376109	0.601612
	H5527	H	0.457498	0.436587	0.601785
	H5528	H	0.394901	0.376062	0.899918
	H5529	H	0.457333	0.439941	0.899996
	H5530	H	0.407639	0.379560	0.601809
	H5531	H	0.470171	0.440388	0.601280
	Co5532	Co	0.494865	0.472395	0.623390
	Co5533	Co	0.432318	0.410168	0.627031
	Co5534	Co	0.369873	0.347559	0.876541
	Co5535	Co	0.432385	0.409834	0.877923
	C5536	C	0.379016	0.420189	0.923735
	C5537	C	0.446288	0.390460	0.924872
	C5538	C	0.418335	0.428498	0.579136
	C5539	C	0.486008	0.393408	0.576750
	C5540	C	0.418354	0.428416	0.924678
	C5541	C	0.485927	0.393377	0.921980
	C5542	C	0.379035	0.419903	0.578990
	C5543	C	0.446346	0.391037	0.579951
	C5544	C	0.420630	0.386975	0.674398
	C5545	C	0.482991	0.449662	0.672267
	C5546	C	0.381806	0.369757	0.827944
	C5547	C	0.444422	0.431635	0.829438
	C5548	C	0.381858	0.369434	0.673091
	C5549	C	0.444226	0.432329	0.674373
	C5550	C	0.420622	0.386861	0.828928
	C5551	C	0.483121	0.449223	0.826813
	C5552	C	0.383655	0.419472	1.001162
	C5553	C	0.450962	0.388834	0.502043
	C5554	C	0.413695	0.430198	1.002164
	C5555	C	0.481313	0.394952	0.499727
	C5556	C	0.416357	0.383068	0.751619
	C5557	C	0.478799	0.445594	0.749739
	C5558	C	0.386161	0.373021	0.750547
	C5559	C	0.448641	0.435336	0.751390
	C5560	C	0.391273	0.422029	1.001374
	C5561	C	0.458677	0.389533	0.501432
	C5562	C	0.405998	0.428835	1.001844
	C5563	C	0.473586	0.394130	0.500685
	C5564	C	0.408788	0.379669	0.751258
	C5565	C	0.471238	0.442110	0.750147
	C5566	C	0.393778	0.375949	0.750906
	C5567	C	0.456260	0.438179	0.750824
	C5568	C	0.395081	0.423981	0.918629
	C5569	C	0.462642	0.389876	1.084265
	C5570	C	0.402199	0.427084	0.584741
	C5571	C	0.469847	0.391994	0.583960
	C5572	C	0.402219	0.427242	0.918810
	C5573	C	0.469879	0.391984	1.083914
	C5574	C	0.395066	0.423909	0.584613
	C5575	C	0.462601	0.389894	0.584425
	C5576	C	0.404914	0.378596	0.834107
	C5577	C	0.467335	0.441860	0.833300
	C5578	C	0.397672	0.376834	0.667792
	C5579	C	0.460172	0.438220	0.667720
	C5580	C	0.397649	0.376757	0.834090
	C5581	C	0.460078	0.440025	0.833712
	C5582	C	0.404928	0.378742	0.668054
	C5583	C	0.467412	0.440213	0.667363
	N5584	N	0.372124	0.421985	0.952193
	N5585	N	0.439474	0.394244	0.953899
	N5586	N	0.425198	0.425277	0.550470
	N5587	N	0.492822	0.390055	0.547771
	N5588	N	0.425192	0.425046	0.953531
	N5589	N	0.492797	0.390026	0.950450
	N5590	N	0.372155	0.421896	0.550403
	N5591	N	0.439500	0.394724	0.551261
	N5592	N	0.426797	0.393389	0.703457
	N5593	N	0.489190	0.456023	0.700744
	N5594	N	0.375560	0.363836	0.799220
	N5595	N	0.438109	0.425999	0.801138
	N5596	N	0.375578	0.363685	0.701995
	N5597	N	0.437965	0.426479	0.703834
	N5598	N	0.426792	0.393340	0.800361
	N5599	N	0.489270	0.455753	0.797640
	H5600	H	0.391281	0.621386	0.348263
	H5601	H	0.442790	0.481436	0.350528
	H5602	H	0.416103	0.536786	0.152240
	H5603	H	0.479642	0.492505	0.151856
	H5604	H	0.416268	0.536935	0.352573
	H5605	H	0.479521	0.491194	0.347785
	H5606	H	0.391353	0.622017	0.150169
	H5607	H	0.442877	0.482529	0.155368
	H5608	H	0.413281	0.482193	0.102829
	H5609	H	0.475756	0.545383	0.098414
	H5610	H	0.377309	0.463973	0.402936
	H5611	H	0.440158	0.525579	0.403786
	H5612	H	0.377560	0.463010	0.100269
	H5613	H	0.439764	0.526488	0.100595
	H5614	H	0.413366	0.481952	0.403484
	H5615	H	0.476055	0.543567	0.400525
	H5616	H	0.399192	0.593318	0.437553
	H5617	H	0.454649	0.486873	0.353159
	H5618	H	0.407822	0.563831	-0.058645
	H5619	H	0.467174	0.492420	-0.147536
	H5620	H	0.407785	0.563731	0.438317
	H5621	H	0.467166	0.492305	0.351703
	H5622	H	0.399314	0.593596	-0.059699
	H5623	H	0.454689	0.486827	-0.146750
	H5624	H	0.401410	0.478560	0.106635
	H5625	H	0.464022	0.538910	0.104418
	H5626	H	0.388893	0.471726	0.398205
	H5627	H	0.451292	0.536979	0.396666
	H5628	H	0.388806	0.473348	0.105786
	H5629	H	0.451491	0.533682	0.105217
	H5630	H	0.401507	0.476722	0.399068
	H5631	H	0.463879	0.542083	0.395785
	Co5632	Co	0.490037	0.562151	0.123793
	Co5633	Co	0.427517	0.499555	0.127657
	Co5634	Co	0.365003	0.437079	0.377031
	Co5635	Co	0.427525	0.499437	0.378533
	C5636	C	0.390441	0.624303	0.422131
	C5637	C	0.441479	0.482417	0.425373
	C5638	C	0.416896	0.533759	0.078953
	C5639	C	0.480904	0.491250	0.077520
	C5640	C	0.417014	0.533954	0.426019
	C5641	C	0.480816	0.490520	0.421821
	C5642	C	0.390538	0.624688	0.076513
	C5643	C	0.441571	0.482804	0.080513
	C5644	C	0.414560	0.482777	0.176142
	C5645	C	0.477030	0.545631	0.172170
	C5646	C	0.376340	0.462019	0.329087
	C5647	C	0.439059	0.524055	0.329508
	C5648	C	0.376437	0.461644	0.174333
	C5649	C	0.438867	0.524566	0.174785
	C5650	C	0.414599	0.482631	0.330006
	C5651	C	0.477167	0.544659	0.326713
	C5652	C	0.393527	0.614085	0.499699
	C5653	C	0.446175	0.481791	0.002679
	C5654	C	0.413866	0.544320	0.502764
	C5655	C	0.476228	0.492623	0.000257
	C5656	C	0.410144	0.480433	0.253013
	C5657	C	0.472670	0.543046	0.249716
	C5658	C	0.380460	0.466862	0.251844
	C5659	C	0.443007	0.529310	0.251808
	C5660	C	0.398673	0.596428	0.500406
	C5661	C	0.453792	0.484355	0.001995
	C5662	C	0.408694	0.561952	0.501872
	C5663	C	0.468536	0.491119	0.001129
	C5664	C	0.402553	0.477748	0.252853
	C5665	C	0.465077	0.540469	0.250374
	C5666	C	0.387815	0.471996	0.252175
	C5667	C	0.450324	0.534520	0.251133
	C5668	C	0.401148	0.587189	0.465367
	C5669	C	0.457457	0.487157	0.418689
	C5670	C	0.406046	0.570404	-0.032620
	C5671	C	0.464601	0.490452	-0.081288
	C5672	C	0.406017	0.570452	0.465948
	C5673	C	0.464601	0.490366	0.418050
	C5674	C	0.401206	0.587219	-0.033003
	C5675	C	0.457466	0.487159	-0.080916
	C5676	C	0.398700	0.477025	0.170924
	C5677	C	0.461304	0.538440	0.169242
	C5678	C	0.391607	0.473182	0.334033
	C5679	C	0.454045	0.537237	0.332008
	C5680	C	0.391531	0.474179	0.170642
	C5681	C	0.454145	0.535520	0.169577
	C5682	C	0.398779	0.476034	0.334415
	C5683	C	0.461199	0.540161	0.331719
	N5684	N	0.385880	0.639575	0.451071
	N5685	N	0.434601	0.484360	0.454343
	N5686	N	0.421453	0.518487	0.050175
	N5687	N	0.487758	0.487804	0.047846
	N5688	N	0.421496	0.518618	0.455400
	N5689	N	0.487679	0.487397	0.449983
	N5690	N	0.386033	0.639950	0.046778
	N5691	N	0.434693	0.484622	0.052312
	N5692	N	0.421130	0.486203	0.204439
	N5693	N	0.483615	0.548832	0.200620
	N5694	N	0.370507	0.453957	0.299532
	N5695	N	0.433190	0.516108	0.301056
	N5696	N	0.370585	0.453674	0.203522
	N5697	N	0.433063	0.516444	0.204703
	N5698	N	0.421149	0.486186	0.301175
	N5699	N	0.483688	0.548314	0.297599
	H5700	H	0.391292	0.621347	0.849320
	H5701	H	0.442782	0.481015	0.851168
	H5702	H	0.415948	0.536465	0.653357
	H5703	H	0.479692	0.492443	0.651497
	H5704	H	0.416052	0.536030	0.851261
	H5705	H	0.479511	0.491707	0.847904
	H5706	H	0.391215	0.621887	0.650293
	H5707	H	0.442894	0.482654	0.654629
	H5708	H	0.413331	0.482578	0.602058
	H5709	H	0.475711	0.545450	0.599002
	H5710	H	0.377331	0.463550	0.903341
	H5711	H	0.440157	0.525128	0.905103
	H5712	H	0.377465	0.463313	0.600614
	H5713	H	0.439696	0.526818	0.601853
	H5714	H	0.413424	0.481625	0.903659
	H5715	H	0.475981	0.543696	0.900909
	H5716	H	0.399508	0.594271	1.059846
	H5717	H	0.455063	0.483943	1.151216
	H5718	H	0.408182	0.565119	0.564918
	H5719	H	0.467564	0.489120	0.649722
	H5720	H	0.408076	0.564581	1.060605
	H5721	H	0.467575	0.489240	1.150620
	H5722	H	0.399563	0.594638	0.563693
	H5723	H	0.455082	0.484015	0.650447
	H5724	H	0.401470	0.477420	0.607318
	H5725	H	0.463836	0.542389	0.895728
	H5726	H	0.388768	0.473133	0.898393
	H5727	H	0.451444	0.533131	0.606855
	H5728	H	0.388904	0.472140	0.606674
	H5729	H	0.451302	0.536905	0.897601
	H5730	H	0.401368	0.478242	0.898940
	H5731	H	0.463994	0.538360	0.606072
	Co5732	Co	0.490079	0.561968	0.623777
	Co5733	Co	0.427481	0.499568	0.628098
	Co5734	Co	0.364957	0.436892	0.876853
	Co5735	Co	0.427527	0.499111	0.878526
	C5736	C	0.390510	0.624337	0.922696
	C5737	C	0.441508	0.482061	0.925579
	C5738	C	0.416857	0.533737	0.579883
	C5739	C	0.480883	0.491140	0.576693
	C5740	C	0.416867	0.533352	0.924989
	C5741	C	0.480829	0.490776	0.922431
	C5742	C	0.390424	0.624559	0.576582
	C5743	C	0.441543	0.482994	0.580426
	C5744	C	0.414507	0.482821	0.675935
	C5745	C	0.476990	0.545735	0.672742
	C5746	C	0.376324	0.461916	0.829222
	C5747	C	0.439014	0.523837	0.831011
	C5748	C	0.376404	0.461710	0.674694
	C5749	C	0.438779	0.524728	0.676120
	C5750	C	0.414575	0.482431	0.829849
	C5751	C	0.477139	0.544827	0.827035
	C5752	C	0.393623	0.614105	0.999891
	C5753	C	0.446136	0.482129	0.502312
	C5754	C	0.413759	0.543971	1.001581
	C5755	C	0.476208	0.492391	0.499545
	C5756	C	0.410131	0.480506	0.752980
	C5757	C	0.472613	0.543198	0.750342
	C5758	C	0.380399	0.466763	0.752160
	C5759	C	0.442951	0.529305	0.753312
	C5760	C	0.398730	0.596342	1.000230
	C5761	C	0.453780	0.484540	0.501571
	C5762	C	0.408644	0.561672	1.000930
	C5763	C	0.468521	0.491061	0.500393
	C5764	C	0.402524	0.477844	0.752863
	C5765	C	0.465025	0.540441	0.750830
	C5766	C	0.387759	0.471952	0.752473
	C5767	C	0.450288	0.534427	0.752673
	C5768	C	0.401352	0.587668	1.033872
	C5769	C	0.457683	0.485493	1.084733
	C5770	C	0.406217	0.571175	0.536720
	C5771	C	0.464820	0.488704	0.583522
	C5772	C	0.406168	0.570800	1.034052
	C5773	C	0.464838	0.488657	1.084376
	C5774	C	0.401351	0.587901	0.536047
	C5775	C	0.457664	0.485730	0.584166
	C5776	C	0.398719	0.476321	0.671423
	C5777	C	0.461166	0.540203	0.832039
	C5778	C	0.391511	0.474008	0.834046
	C5779	C	0.454107	0.535115	0.671125
	C5780	C	0.391576	0.473453	0.671323
	C5781	C	0.454007	0.537290	0.833094
	C5782	C	0.398660	0.476903	0.834188
	C5783	C	0.461255	0.538069	0.670260
	N5784	N	0.385998	0.639685	0.951544
	N5785	N	0.434643	0.484127	0.954395
	N5786	N	0.421412	0.518509	0.550825
	N5787	N	0.487730	0.487730	0.547499
	N5788	N	0.421428	0.518226	0.954731
	N5789	N	0.487700	0.487617	0.950499
	N5790	N	0.385861	0.639734	0.546707
	N5791	N	0.434640	0.484675	0.552171
	N5792	N	0.421099	0.486127	0.704376
	N5793	N	0.483585	0.548892	0.700854
	N5794	N	0.370488	0.453861	0.799734
	N5795	N	0.433134	0.516011	0.802230
	N5796	N	0.370529	0.453732	0.703381
	N5797	N	0.432987	0.516522	0.705650
	N5798	N	0.421154	0.485858	0.801012
	N5799	N	0.483680	0.548360	0.797698
	H5800	H	0.390173	0.728822	0.348165
	H5801	H	0.453883	0.684197	0.347944
	H5802	H	0.427144	0.739405	0.150246
	H5803	H	0.478599	0.599309	0.150254
	H5804	H	0.426987	0.738334	0.345894
	H5805	H	0.478392	0.598711	0.348032
	H5806	H	0.390359	0.730528	0.151558
	H5807	H	0.453869	0.684499	0.149311
	H5808	H	0.429744	0.695551	0.097061
	H5809	H	0.492374	0.757758	0.096638
	H5810	H	0.394139	0.675411	0.398995
	H5811	H	0.456500	0.738275	0.399295
	H5812	H	0.393933	0.677446	0.098168
	H5813	H	0.456497	0.739571	0.098338
	H5814	H	0.430212	0.693821	0.400245
	H5815	H	0.492435	0.757213	0.399425
	H5816	H	0.402250	0.732406	0.350583
	H5817	H	0.462173	0.656939	0.442416
	H5818	H	0.414867	0.737833	-0.149015
	H5819	H	0.470116	0.626216	0.127908
	H5820	H	0.414796	0.737539	0.350084
	H5821	H	0.470717	0.627375	0.442700
	H5822	H	0.402350	0.732472	-0.149337
	H5823	H	0.461642	0.655952	0.127507
	H5824	H	0.418341	0.687758	0.394828
	H5825	H	0.480846	0.749680	0.393192
	H5826	H	0.406183	0.677981	0.103360
	H5827	H	0.468557	0.741500	0.103609
	H5828	H	0.405751	0.682711	0.394710
	H5829	H	0.468272	0.744474	0.393085
	H5830	H	0.418741	0.683156	0.103577
	H5831	H	0.481140	0.746779	0.103483
	Co5832	Co	0.504866	0.784072	0.122590
	Co5833	Co	0.442392	0.721387	0.122549
	Co5834	Co	0.379872	0.658502	0.373682
	Co5835	Co	0.442415	0.721053	0.373014
	C5836	C	0.388947	0.730194	0.422532
	C5837	C	0.452995	0.686975	0.421402
	C5838	C	0.428437	0.738479	0.076026
	C5839	C	0.479398	0.596296	0.076474
	C5840	C	0.428326	0.737843	0.420114
	C5841	C	0.479293	0.596060	0.422186
	C5842	C	0.389065	0.731094	0.077289
	C5843	C	0.453029	0.687152	0.075488
	C5844	C	0.430861	0.696846	0.170733
	C5845	C	0.493386	0.759453	0.170780
	C5846	C	0.392849	0.675058	0.325569
	C5847	C	0.455322	0.737903	0.325572
	C5848	C	0.392738	0.676036	0.171776
	C5849	C	0.455261	0.738480	0.171520
	C5850	C	0.431112	0.695958	0.325326
	C5851	C	0.493475	0.759156	0.325523
	C5852	C	0.393615	0.728837	0.499666
	C5853	C	0.456061	0.676632	-0.001701
	C5854	C	0.423726	0.738875	0.497765
	C5855	C	0.476253	0.606543	-0.000829
	C5856	C	0.426924	0.691354	0.248393
	C5857	C	0.489377	0.754214	0.248454
	C5858	C	0.397261	0.677633	0.248611
	C5859	C	0.459721	0.740487	0.248436
	C5860	C	0.401343	0.730049	0.498784
	C5861	C	0.461180	0.658934	-0.001487
	C5862	C	0.416095	0.736446	0.498191
	C5863	C	0.471115	0.624238	-0.000955
	C5864	C	0.419586	0.686250	0.248900
	C5865	C	0.482050	0.749048	0.248514
	C5866	C	0.404852	0.680290	0.248799
	C5867	C	0.467302	0.743041	0.248458
	C5868	C	0.405039	0.732638	0.416141
	C5869	C	0.463874	0.650274	0.466937
	C5870	C	0.412227	0.735899	-0.083384
	C5871	C	0.468413	0.632890	0.071291
	C5872	C	0.412196	0.735693	0.415929
	C5873	C	0.468733	0.633502	0.467148
	C5874	C	0.405086	0.732813	-0.083405
	C5875	C	0.463589	0.649715	0.070852
	C5876	C	0.415711	0.685703	0.330349
	C5877	C	0.478208	0.747921	0.329412
	C5878	C	0.408782	0.680189	0.167634
	C5879	C	0.471199	0.743452	0.167469
	C5880	C	0.408546	0.682798	0.330280
	C5881	C	0.471042	0.745039	0.329459
	C5882	C	0.415951	0.683068	0.167643
	C5883	C	0.478366	0.746398	0.167622
	N5884	N	0.382117	0.734079	0.451694
	N5885	N	0.448454	0.702204	0.450539
	N5886	N	0.435307	0.736469	0.046935
	N5887	N	0.483949	0.581067	0.047384
	N5888	N	0.435220	0.736097	0.448006
	N5889	N	0.483902	0.580970	0.451206
	N5890	N	0.382211	0.734483	0.048760
	N5891	N	0.448491	0.702410	0.046245
	N5892	N	0.436759	0.704594	0.199459
	N5893	N	0.499245	0.767315	0.199805
	N5894	N	0.386267	0.671843	0.296942
	N5895	N	0.448769	0.734581	0.296752
	N5896	N	0.386180	0.672483	0.200356
	N5897	N	0.448715	0.734835	0.200094
	N5898	N	0.436908	0.704107	0.295597
	N5899	N	0.499315	0.767200	0.296135
	H5900	H	0.390245	0.729212	0.847567
	H5901	H	0.453700	0.683958	0.847428
	H5902	H	0.427129	0.739793	0.649305
	H5903	H	0.478924	0.599665	0.650562
	H5904	H	0.426985	0.738580	0.846859
	H5905	H	0.478380	0.598622	0.848395
	H5906	H	0.390354	0.730613	0.652047
	H5907	H	0.453584	0.683816	0.649508
	H5908	H	0.429758	0.695377	0.595430
	H5909	H	0.492404	0.757793	0.597250
	H5910	H	0.394115	0.675626	0.899326
	H5911	H	0.456498	0.738591	0.899296
	H5912	H	0.393976	0.676481	0.597613
	H5913	H	0.456505	0.739204	0.597620
	H5914	H	0.430025	0.694536	0.898114
	H5915	H	0.492512	0.757117	0.900175
	H5916	H	0.402671	0.728409	1.147819
	H5917	H	0.462190	0.657023	0.870132
	H5918	H	0.415210	0.733633	0.646747
	H5919	H	0.470112	0.626087	0.555121
	H5920	H	0.415215	0.733901	1.148019
	H5921	H	0.470723	0.627344	0.870195
	H5922	H	0.402652	0.728346	0.646679
	H5923	H	0.461512	0.655674	0.555161
	H5924	H	0.418303	0.688035	0.892652
	H5925	H	0.481145	0.747470	0.604161
	H5926	H	0.406105	0.678173	0.604011
	H5927	H	0.468333	0.744101	0.892510
	H5928	H	0.405773	0.682725	0.892978
	H5929	H	0.468581	0.742179	0.603942
	H5930	H	0.418671	0.683435	0.603277
	H5931	H	0.480887	0.749330	0.892546
	Co5932	Co	0.504899	0.783953	0.623263
	Co5933	Co	0.442366	0.721503	0.622276
	Co5934	Co	0.379940	0.658429	0.873463
	Co5935	Co	0.442382	0.721198	0.872963
	C5936	C	0.389031	0.730446	0.922075
	C5937	C	0.452955	0.686931	0.921208
	C5938	C	0.428386	0.738613	0.574881
	C5939	C	0.479570	0.596549	0.576673
	C5940	C	0.428344	0.738049	0.921061
	C5941	C	0.479301	0.595974	0.922126
	C5942	C	0.389032	0.731166	0.577526
	C5943	C	0.452853	0.686801	0.575550
	C5944	C	0.430891	0.696828	0.669790
	C5945	C	0.493425	0.759288	0.671476
	C5946	C	0.392855	0.675336	0.825696
	C5947	C	0.455318	0.738106	0.825328
	C5948	C	0.392795	0.675735	0.671342
	C5949	C	0.455297	0.738330	0.671307
	C5950	C	0.431024	0.696310	0.824422
	C5951	C	0.493495	0.758997	0.825772
	C5952	C	0.393680	0.729057	0.999620
	C5953	C	0.456015	0.676487	0.498502
	C5954	C	0.423764	0.738985	0.999069
	C5955	C	0.476296	0.606665	0.499570
	C5956	C	0.426887	0.691630	0.747209
	C5957	C	0.489422	0.754162	0.748587
	C5958	C	0.397251	0.677789	0.748412
	C5959	C	0.459744	0.740370	0.748353
	C5960	C	0.401374	0.730250	0.999302
	C5961	C	0.461145	0.658822	0.498376
	C5962	C	0.416096	0.736718	0.999470
	C5963	C	0.471160	0.624316	0.499145
	C5964	C	0.419571	0.686461	0.748003
	C5965	C	0.482085	0.749025	0.748530
	C5966	C	0.404843	0.680451	0.748241
	C5967	C	0.467341	0.743053	0.748207
	C5968	C	0.405262	0.730628	1.082043
	C5969	C	0.463909	0.650318	0.926540
	C5970	C	0.412430	0.733468	0.580826
	C5971	C	0.468399	0.632806	0.530415
	C5972	C	0.412409	0.733723	1.082182
	C5973	C	0.468733	0.633480	0.926956
	C5974	C	0.405281	0.730409	0.581280
	C5975	C	0.463537	0.649597	0.530245
	C5976	C	0.415717	0.685884	0.828805
	C5977	C	0.478378	0.746689	0.667779
	C5978	C	0.408753	0.680386	0.667539
	C5979	C	0.471096	0.744892	0.828794
	C5980	C	0.408566	0.682940	0.829001
	C5981	C	0.471222	0.743811	0.667751
	C5982	C	0.415904	0.683368	0.667602
	C5983	C	0.478245	0.747818	0.828940
	N5984	N	0.382187	0.734176	0.951342
	N5985	N	0.448448	0.702289	0.950207
	N5986	N	0.435277	0.736567	0.545998
	N5987	N	0.484067	0.581244	0.547157
	N5988	N	0.435253	0.736192	0.949057
	N5989	N	0.483903	0.580864	0.951278
	N5990	N	0.382164	0.734610	0.548935
	N5991	N	0.448380	0.702149	0.546285
	N5992	N	0.436758	0.704726	0.698763
	N5993	N	0.499296	0.767193	0.700392
	N5994	N	0.386283	0.671942	0.796920
	N5995	N	0.448772	0.734623	0.796622
	N5996	N	0.386254	0.672171	0.700106
	N5997	N	0.448739	0.734785	0.699715
	N5998	N	0.436854	0.704370	0.795129
	N5999	N	0.499329	0.767080	0.796572
	H6000	H	0.385373	0.823005	0.348525
	H6001	H	0.452794	0.791674	0.347434
	H6002	H	0.422370	0.832899	0.150041
	H6003	H	0.489567	0.801878	0.150712
	H6004	H	0.422194	0.831106	0.346466
	H6005	H	0.489535	0.801362	0.346423
	H6006	H	0.385546	0.823627	0.152469
	H6007	H	0.452804	0.792806	0.151062
	H6008	H	0.424389	0.788920	0.096471
	H6009	H	0.486818	0.851775	0.095600
	H6010	H	0.388111	0.772797	0.401816
	H6011	H	0.450511	0.835616	0.400613
	H6012	H	0.387824	0.774246	0.098887
	H6013	H	0.450252	0.837006	0.097568
	H6014	H	0.424688	0.787823	0.400202
	H6015	H	0.487040	0.850594	0.399782
	H6016	H	0.397782	0.824005	0.648205
	H6017	H	0.464917	0.793650	0.350455
	H6018	H	0.410266	0.829841	0.147933
	H6019	H	0.477624	0.797213	0.146671
	H6020	H	0.410348	0.828963	0.648048
	H6021	H	0.477474	0.798997	0.350222
	H6022	H	0.397705	0.824860	0.148397
	H6023	H	0.465095	0.792067	0.146894
	H6024	H	0.412678	0.780836	0.100414
	H6025	H	0.474936	0.846516	0.397063
	H6026	H	0.399782	0.781324	0.398760
	H6027	H	0.462383	0.841190	0.099109
	H6028	H	0.400017	0.777104	0.101202
	H6029	H	0.462269	0.843073	0.397337
	H6030	H	0.412394	0.784890	0.398380
	H6031	H	0.475057	0.844849	0.099029
	Co6032	Co	0.499965	0.875135	0.122042
	Co6033	Co	0.437481	0.812376	0.123020
	Co6034	Co	0.375025	0.749455	0.375036
	Co6035	Co	0.437513	0.811848	0.373816
	C6036	C	0.384137	0.823832	0.423297
	C6037	C	0.451498	0.793086	0.421962
	C6038	C	0.423581	0.831681	0.075532
	C6039	C	0.490869	0.801091	0.076368
	C6040	C	0.423489	0.830831	0.421044
	C6041	C	0.490864	0.800766	0.420932
	C6042	C	0.384206	0.824181	0.077894
	C6043	C	0.451521	0.793606	0.076625
	C6044	C	0.425544	0.790027	0.171046
	C6045	C	0.487999	0.852897	0.170137
	C6046	C	0.386937	0.771850	0.327325
	C6047	C	0.449380	0.834498	0.326291
	C6048	C	0.386794	0.772607	0.172708
	C6049	C	0.449245	0.835141	0.171766
	C6050	C	0.425684	0.789442	0.325655
	C6051	C	0.488099	0.852386	0.325252
	C6052	C	0.388799	0.823434	0.500534
	C6053	C	0.456140	0.791532	-0.001152
	C6054	C	0.418907	0.833164	0.498946
	C6055	C	0.486240	0.801658	-0.001267
	C6056	C	0.421307	0.786211	0.248417
	C6057	C	0.483739	0.849049	0.247886
	C6058	C	0.391136	0.775920	0.249768
	C6059	C	0.453595	0.838567	0.248847
	C6060	C	0.396443	0.825762	0.500150
	C6061	C	0.463848	0.792742	-0.001344
	C6062	C	0.411202	0.832054	0.499900
	C6063	C	0.478606	0.799215	-0.001270
	C6064	C	0.413725	0.783080	0.249169
	C6065	C	0.476170	0.845873	0.248085
	C6066	C	0.398718	0.779127	0.249644
	C6067	C	0.461162	0.841854	0.248343
	C6068	C	0.400371	0.826129	0.582664
	C6069	C	0.467638	0.794634	0.416227
	C6070	C	0.407489	0.829703	0.082272
	C6071	C	0.474874	0.796701	0.081063
	C6072	C	0.407532	0.829143	0.582509
	C6073	C	0.474787	0.797800	0.415946
	C6074	C	0.400334	0.826685	0.082599
	C6075	C	0.467716	0.793698	0.081147
	C6076	C	0.409921	0.780965	0.166530
	C6077	C	0.472272	0.845296	0.330855
	C6078	C	0.402527	0.781250	0.332544
	C6079	C	0.465064	0.842417	0.165298
	C6080	C	0.402680	0.778965	0.166941
	C6081	C	0.465015	0.843362	0.331101
	C6082	C	0.409779	0.783171	0.332203
	C6083	C	0.472321	0.844517	0.165276
	N6084	N	0.377269	0.825820	0.452418
	N6085	N	0.444651	0.796626	0.450603
	N6086	N	0.430382	0.827781	0.046479
	N6087	N	0.497761	0.799119	0.047343
	N6088	N	0.430357	0.827467	0.449325
	N6089	N	0.497751	0.798843	0.449353
	N6090	N	0.377299	0.826014	0.049665
	N6091	N	0.444680	0.797036	0.047889
	N6092	N	0.431797	0.795972	0.199388
	N6093	N	0.494238	0.858818	0.198801
	N6094	N	0.380692	0.765821	0.298729
	N6095	N	0.443162	0.828393	0.297608
	N6096	N	0.380619	0.766259	0.201549
	N6097	N	0.443052	0.828853	0.200603
	N6098	N	0.431904	0.795553	0.296544
	N6099	N	0.494304	0.858523	0.295991
	H6100	H	0.385471	0.822763	0.848628
	H6101	H	0.452731	0.791860	0.846957
	H6102	H	0.422371	0.833420	0.650402
	H6103	H	0.489625	0.801854	0.650913
	H6104	H	0.422254	0.831748	0.846678
	H6105	H	0.489523	0.801552	0.846843
	H6106	H	0.385535	0.823773	0.652447
	H6107	H	0.452807	0.792860	0.651442
	H6108	H	0.424356	0.789291	0.596283
	H6109	H	0.486871	0.851919	0.596131
	H6110	H	0.388142	0.772998	0.901778
	H6111	H	0.450658	0.835527	0.901220
	H6112	H	0.387850	0.774580	0.597539
	H6113	H	0.450348	0.837183	0.597872
	H6114	H	0.424713	0.787662	0.899675
	H6115	H	0.487128	0.850948	0.899759
	H6116	H	0.397335	0.828672	0.851095
	H6117	H	0.464893	0.793921	0.850757
	H6118	H	0.409783	0.834351	0.351492
	H6119	H	0.477587	0.797986	0.647003
	H6120	H	0.409872	0.833801	0.850704
	H6121	H	0.477432	0.799329	0.850669
	H6122	H	0.397262	0.829276	0.351676
	H6123	H	0.465059	0.792742	0.647057
	H6124	H	0.412473	0.785135	0.897665
	H6125	H	0.475117	0.844978	0.600097
	H6126	H	0.400096	0.776947	0.601069
	H6127	H	0.462411	0.842604	0.897384
	H6128	H	0.399787	0.781628	0.898036
	H6129	H	0.462425	0.841294	0.600629
	H6130	H	0.412788	0.780475	0.600877
	H6131	H	0.475110	0.846183	0.896772
	Co6132	Co	0.499991	0.875444	0.622058
	Co6133	Co	0.437501	0.812747	0.623211
	Co6134	Co	0.375062	0.749627	0.875128
	Co6135	Co	0.437543	0.812102	0.873952
	C6136	C	0.384158	0.823726	0.922768
	C6137	C	0.451492	0.793058	0.921524
	C6138	C	0.423587	0.831922	0.575919
	C6139	C	0.490892	0.801035	0.575996
	C6140	C	0.423519	0.831179	0.920824
	C6141	C	0.490848	0.800907	0.921053
	C6142	C	0.384196	0.824290	0.578293
	C6143	C	0.451515	0.793699	0.576871
	C6144	C	0.425565	0.790267	0.670531
	C6145	C	0.488042	0.853078	0.670268
	C6146	C	0.386974	0.771984	0.827300
	C6147	C	0.449476	0.834475	0.826941
	C6148	C	0.386836	0.772764	0.672484
	C6149	C	0.449306	0.835399	0.672212
	C6150	C	0.425741	0.789502	0.825217
	C6151	C	0.488193	0.852336	0.825243
	C6152	C	0.388814	0.823304	1.000208
	C6153	C	0.456146	0.791643	0.499298
	C6154	C	0.418905	0.833326	0.998703
	C6155	C	0.486249	0.801629	0.498474
	C6156	C	0.421362	0.786224	0.748168
	C6157	C	0.483813	0.849103	0.747841
	C6158	C	0.391202	0.776019	0.749737
	C6159	C	0.453691	0.838613	0.749426
	C6160	C	0.396456	0.825749	0.999942
	C6161	C	0.463864	0.792882	0.498864
	C6162	C	0.411204	0.832142	0.999490
	C6163	C	0.478609	0.799377	0.498511
	C6164	C	0.413783	0.783033	0.749064
	C6165	C	0.476259	0.845776	0.748386
	C6166	C	0.398785	0.779166	0.749596
	C6167	C	0.461273	0.841858	0.748890
	C6168	C	0.400128	0.828665	0.916994
	C6169	C	0.467614	0.794781	0.916428
	C6170	C	0.407234	0.832057	0.417397
	C6171	C	0.474862	0.797208	0.581037
	C6172	C	0.407283	0.831751	0.916826
	C6173	C	0.474773	0.797911	0.916260
	C6174	C	0.400077	0.829016	0.417516
	C6175	C	0.467705	0.794133	0.581238
	C6176	C	0.409838	0.783214	0.832003
	C6177	C	0.472406	0.844428	0.666070
	C6178	C	0.402734	0.778859	0.666987
	C6179	C	0.465144	0.843207	0.831477
	C6180	C	0.402584	0.781290	0.832197
	C6181	C	0.465152	0.842380	0.666184
	C6182	C	0.409989	0.780792	0.666748
	C6183	C	0.472400	0.845102	0.831165
	N6184	N	0.377267	0.825748	0.951961
	N6185	N	0.444673	0.796782	0.950507
	N6186	N	0.430411	0.828096	0.546902
	N6187	N	0.497775	0.799004	0.547356
	N6188	N	0.430357	0.827509	0.949159
	N6189	N	0.497733	0.799043	0.949470
	N6190	N	0.377318	0.826050	0.550443
	N6191	N	0.444668	0.797076	0.547926
	N6192	N	0.431807	0.796277	0.699003
	N6193	N	0.494276	0.859074	0.698996
	N6194	N	0.380728	0.766024	0.798354
	N6195	N	0.443229	0.828522	0.798000
	N6196	N	0.380624	0.766560	0.701416
	N6197	N	0.443129	0.829021	0.701180
	N6198	N	0.431949	0.795739	0.796021
	N6199	N	0.494372	0.858629	0.796013
	H6200	H	0.396337	1.025754	0.348625
	H6201	H	0.447970	0.885642	0.348288
	H6202	H	0.421298	0.941451	0.150867
	H6203	H	0.484816	0.895557	0.148757
	H6204	H	0.421203	0.940670	0.348630
	H6205	H	0.484672	0.894582	0.345746
	H6206	H	0.396368	1.026221	0.151485
	H6207	H	0.448034	0.886431	0.152201
	H6208	H	0.418513	0.886485	0.098506
	H6209	H	0.481033	0.948844	0.098523
	H6210	H	0.382832	0.867208	0.401499
	H6211	H	0.445314	0.929632	0.401835
	H6212	H	0.382474	0.867793	0.098541
	H6213	H	0.444944	0.930980	0.098920
	H6214	H	0.418597	0.885623	0.399915
	H6215	H	0.481082	0.948316	0.399658
	H6216	H	0.404591	0.998360	0.372091
	H6217	H	0.459891	0.890092	0.351434
	H6218	H	0.412748	0.968373	-0.044595
	H6219	H	0.472435	0.895048	-0.150457
	H6220	H	0.413114	0.968661	0.371317
	H6221	H	0.472427	0.895455	0.351121
	H6222	H	0.404173	0.997971	-0.043609
	H6223	H	0.459900	0.890061	-0.148968
	H6224	H	0.406775	0.879613	0.102849
	H6225	H	0.469083	0.945170	0.394473
	H6226	H	0.393849	0.878982	0.395127
	H6227	H	0.456601	0.938540	0.103820
	H6228	H	0.394213	0.874430	0.103034
	H6229	H	0.456487	0.940241	0.394928
	H6230	H	0.406475	0.884098	0.394399
	H6231	H	0.469171	0.943601	0.102984
	Co6232	Co	0.495174	0.966170	0.123696
	Co6233	Co	0.432653	0.904092	0.124975
	Co6234	Co	0.370188	0.840881	0.376639
	Co6235	Co	0.432673	0.903637	0.375989
	C6236	C	0.395560	1.028778	0.422515
	C6237	C	0.446681	0.886495	0.422784
	C6238	C	0.422060	0.938320	0.076982
	C6239	C	0.486095	0.894415	0.074607
	C6240	C	0.422059	0.937928	0.422245
	C6241	C	0.485990	0.893906	0.420427
	C6242	C	0.395579	1.028901	0.077374
	C6243	C	0.446694	0.887033	0.077723
	C6244	C	0.419749	0.887009	0.172179
	C6245	C	0.482289	0.949353	0.171913
	C6246	C	0.381660	0.865557	0.327693
	C6247	C	0.444175	0.928272	0.327854
	C6248	C	0.381511	0.865942	0.172912
	C6249	C	0.443993	0.928946	0.173104
	C6250	C	0.419765	0.886596	0.326416
	C6251	C	0.482307	0.949108	0.325877
	C6252	C	0.398718	1.018411	0.499194
	C6253	C	0.451284	0.886153	-0.000396
	C6254	C	0.418957	0.948509	0.499021
	C6255	C	0.481426	0.895944	-0.002692
	C6256	C	0.415312	0.884568	0.249021
	C6257	C	0.477832	0.947023	0.249001
	C6258	C	0.385647	0.870801	0.249953
	C6259	C	0.448171	0.933642	0.250192
	C6260	C	0.403838	1.000705	0.499135
	C6261	C	0.458924	0.888381	-0.000614
	C6262	C	0.413790	0.966080	0.498670
	C6263	C	0.473692	0.894751	-0.001978
	C6264	C	0.407722	0.881879	0.248849
	C6265	C	0.470255	0.944403	0.248853
	C6266	C	0.392979	0.875987	0.249271
	C6267	C	0.455490	0.938720	0.249485
	C6268	C	0.406424	0.991829	0.427854
	C6269	C	0.462667	0.890664	0.416975
	C6270	C	0.411034	0.974862	-0.024930
	C6271	C	0.469814	0.893641	-0.084196
	C6272	C	0.411269	0.975015	0.427696
	C6273	C	0.469804	0.893834	0.416806
	C6274	C	0.406186	0.991622	-0.024490
	C6275	C	0.462659	0.890582	-0.083342
	C6276	C	0.403997	0.879430	0.167532
	C6277	C	0.466411	0.943644	0.330172
	C6278	C	0.396636	0.879053	0.330543
	C6279	C	0.459275	0.940000	0.168103
	C6280	C	0.396834	0.876518	0.167691
	C6281	C	0.459227	0.940897	0.330501
	C6282	C	0.403807	0.881938	0.330451
	C6283	C	0.466457	0.942810	0.167671
	N6284	N	0.391061	1.044070	0.451971
	N6285	N	0.439809	0.888527	0.451593
	N6286	N	0.426604	0.923030	0.047926
	N6287	N	0.492939	0.890841	0.046041
	N6288	N	0.426612	0.922767	0.452213
	N6289	N	0.492859	0.890493	0.448791
	N6290	N	0.391017	1.044132	0.048006
	N6291	N	0.439777	0.888951	0.049377
	N6292	N	0.426312	0.890518	0.201342
	N6293	N	0.488844	0.952721	0.200552
	N6294	N	0.375784	0.857654	0.299044
	N6295	N	0.438291	0.920506	0.298992
	N6296	N	0.375718	0.857842	0.202869
	N6297	N	0.438200	0.920853	0.202759
	N6298	N	0.426307	0.890308	0.297932
	N6299	N	0.488855	0.952616	0.297123
	H6300	H	0.396258	1.026036	0.849775
	H6301	H	0.447912	0.885682	0.847611
	H6302	H	0.421264	0.941239	0.650342
	H6303	H	0.484842	0.895620	0.650406
	H6304	H	0.421002	0.940595	0.848399
	H6305	H	0.484755	0.894836	0.845809
	H6306	H	0.396541	1.026088	0.650081
	H6307	H	0.448033	0.886342	0.652322
	H6308	H	0.418401	0.886641	0.599832
	H6309	H	0.480880	0.949078	0.599377
	H6310	H	0.382797	0.866794	0.901734
	H6311	H	0.445087	0.929798	0.902305
	H6312	H	0.382388	0.867984	0.598789
	H6313	H	0.444979	0.930551	0.599195
	H6314	H	0.418671	0.885335	0.900484
	H6315	H	0.481199	0.947731	0.900186
	H6316	H	0.404707	0.998691	1.043311
	H6317	H	0.460133	0.888449	1.148136
	H6318	H	0.413059	0.968528	0.625860
	H6319	H	0.472694	0.893139	0.647737
	H6320	H	0.413293	0.969079	1.043111
	H6321	H	0.472691	0.893474	1.146939
	H6322	H	0.404492	0.998110	0.626252
	H6323	H	0.460168	0.888154	0.648196
	H6324	H	0.406845	0.879147	0.604794
	H6325	H	0.469161	0.942942	0.604997
	H6326	H	0.393800	0.878794	0.895168
	H6327	H	0.456407	0.940383	0.896046
	H6328	H	0.394278	0.873929	0.604777
	H6329	H	0.456579	0.937868	0.605509
	H6330	H	0.406397	0.883966	0.895284
	H6331	H	0.469057	0.945214	0.895821
	Co6332	Co	0.495168	0.965890	0.623347
	Co6333	Co	0.432623	0.903831	0.625017
	Co6334	Co	0.370197	0.840717	0.876163
	Co6335	Co	0.432574	0.903659	0.875378
	C6336	C	0.395532	1.028845	0.923410
	C6337	C	0.446629	0.886582	0.922183
	C6338	C	0.422091	0.938254	0.576726
	C6339	C	0.486056	0.894387	0.575672
	C6340	C	0.421916	0.937914	0.922505
	C6341	C	0.486051	0.893930	0.919904
	C6342	C	0.395676	1.028903	0.576458
	C6343	C	0.446718	0.886916	0.577780
	C6344	C	0.419664	0.887001	0.673295
	C6345	C	0.482154	0.949438	0.672910
	C6346	C	0.381683	0.865331	0.827515
	C6347	C	0.444062	0.928266	0.827831
	C6348	C	0.381497	0.865987	0.673108
	C6349	C	0.444020	0.928686	0.673360
	C6350	C	0.419773	0.886381	0.826870
	C6351	C	0.482292	0.948819	0.826623
	C6352	C	0.398660	1.018476	1.000430
	C6353	C	0.451320	0.886028	0.499948
	C6354	C	0.418903	0.948513	0.999570
	C6355	C	0.481392	0.895938	0.498350
	C6356	C	0.415305	0.884360	0.750094
	C6357	C	0.477817	0.946852	0.750058
	C6358	C	0.385650	0.870606	0.750043
	C6359	C	0.448077	0.933405	0.750814
	C6360	C	0.403787	1.000716	1.000291
	C6361	C	0.458965	0.888297	0.499674
	C6362	C	0.413752	0.966188	0.999402
	C6363	C	0.473688	0.894783	0.499018
	C6364	C	0.407733	0.881611	0.750262
	C6365	C	0.470205	0.944164	0.750543
	C6366	C	0.392989	0.875689	0.749833
	C6367	C	0.455453	0.938447	0.750784
	C6368	C	0.406476	0.992036	1.024336
	C6369	C	0.462780	0.889789	1.081919
	C6370	C	0.411221	0.974928	0.570025
	C6371	C	0.469963	0.892638	0.581811
	C6372	C	0.411311	0.975249	1.023877
	C6373	C	0.469938	0.892781	1.081190
	C6374	C	0.406388	0.991770	0.570306
	C6375	C	0.462814	0.889578	0.582135
	C6376	C	0.404037	0.879011	0.668938
	C6377	C	0.466420	0.942243	0.669244
	C6378	C	0.396615	0.878818	0.831181
	C6379	C	0.459179	0.940836	0.831991
	C6380	C	0.396884	0.876114	0.668839
	C6381	C	0.459265	0.939519	0.669493
	C6382	C	0.403775	0.881687	0.831274
	C6383	C	0.466338	0.943613	0.831821
	N6384	N	0.390992	1.044098	0.952752
	N6385	N	0.439741	0.888709	0.951412
	N6386	N	0.426624	0.922954	0.547985
	N6387	N	0.492896	0.890759	0.546244
	N6388	N	0.426504	0.922768	0.951780
	N6389	N	0.492885	0.890510	0.948659
	N6390	N	0.391127	1.044172	0.547528
	N6391	N	0.439834	0.888752	0.549693
	N6392	N	0.426234	0.890431	0.701565
	N6393	N	0.488748	0.952828	0.701058
	N6394	N	0.375783	0.857540	0.798807
	N6395	N	0.438193	0.920406	0.798403
	N6396	N	0.375677	0.857945	0.702634
	N6397	N	0.438157	0.920680	0.702216
	N6398	N	0.426292	0.890120	0.798343
	N6399	N	0.488833	0.952512	0.797624
	H6400	H	0.521270	0.150547	0.349370
	H6401	H	0.572941	0.011316	0.348678
	H6402	H	0.546335	0.066105	0.150999
	H6403	H	0.609699	0.020099	0.152683
	H6404	H	0.546132	0.065568	0.349672
	H6405	H	0.609777	0.020042	0.348660
	H6406	H	0.521303	0.150691	0.150061
	H6407	H	0.572966	0.010984	0.152432
	H6408	H	0.543586	0.011174	0.099809
	H6409	H	0.605944	0.073724	0.100423
	H6410	H	0.507547	-0.007283	0.400426
	H6411	H	0.570008	0.055493	0.402928
	H6412	H	0.507769	-0.007806	0.097411
	H6413	H	0.570240	0.054719	0.100021
	H6414	H	0.543512	0.011079	0.401062
	H6415	H	0.606156	0.072657	0.401123
	H6416	H	0.528985	0.122120	0.476221
	H6417	H	0.585053	0.013505	0.352093
	H6418	H	0.538203	0.093680	-0.069860
	H6419	H	0.597595	0.019413	0.148716
	H6420	H	0.537570	0.092454	0.475665
	H6421	H	0.597586	0.018835	0.352091
	H6422	H	0.529671	0.123289	-0.069981
	H6423	H	0.585055	0.014453	0.148640
	H6424	H	0.531582	0.007907	0.105036
	H6425	H	0.594071	0.069442	0.105860
	H6426	H	0.519143	0.000512	0.394865
	H6427	H	0.581593	0.063687	0.396457
	H6428	H	0.518965	0.002910	0.105430
	H6429	H	0.581454	0.064850	0.106166
	H6430	H	0.531731	0.005534	0.395412
	H6431	H	0.594197	0.068591	0.395894
	Co6432	Co	0.620117	0.091037	0.125341
	Co6433	Co	0.557665	0.028710	0.125264
	Co6434	Co	0.495187	-0.033897	0.373863
	Co6435	Co	0.557642	0.028778	0.375829
	C6436	C	0.520519	0.153635	0.422894
	C6437	C	0.571622	0.011770	0.423089
	C6438	C	0.547097	0.063071	0.077270
	C6439	C	0.611028	0.018982	0.078229
	C6440	C	0.546988	0.062922	0.423148
	C6441	C	0.611039	0.019051	0.423415
	C6442	C	0.520518	0.153634	0.076469
	C6443	C	0.571678	0.011689	0.077816
	C6444	C	0.544774	0.011814	0.173585
	C6445	C	0.607225	0.074102	0.173740
	C6446	C	0.506587	-0.009013	0.326289
	C6447	C	0.569017	0.053759	0.328695
	C6448	C	0.506662	-0.009228	0.171700
	C6449	C	0.569126	0.053372	0.173973
	C6450	C	0.544751	0.011838	0.327662
	C6451	C	0.607350	0.073525	0.327774
	C6452	C	0.523642	0.143365	0.499895
	C6453	C	0.576315	0.011090	0.000195
	C6454	C	0.543971	0.073545	0.500193
	C6455	C	0.606426	0.020741	0.000468
	C6456	C	0.540325	0.009574	0.250542
	C6457	C	0.602844	0.071550	0.251022
	C6458	C	0.510705	-0.004177	0.249224
	C6459	C	0.573136	0.058570	0.251488
	C6460	C	0.528792	0.125692	0.499987
	C6461	C	0.583952	0.013352	0.000357
	C6462	C	0.538800	0.091147	0.500450
	C6463	C	0.598712	0.019554	0.000483
	C6464	C	0.532752	0.006902	0.250278
	C6465	C	0.595251	0.068966	0.251207
	C6466	C	0.518039	0.001018	0.249941
	C6467	C	0.580463	0.063608	0.251517
	C6468	C	0.531080	0.116135	0.486539
	C6469	C	0.587729	0.014860	0.417858
	C6470	C	0.536300	0.100022	-0.039364
	C6471	C	0.594905	0.018268	0.083134
	C6472	C	0.535936	0.099376	0.486749
	C6473	C	0.594902	0.017787	0.417951
	C6474	C	0.531428	0.116764	-0.039551
	C6475	C	0.587741	0.015309	0.082832
	C6476	C	0.528909	0.006256	0.169188
	C6477	C	0.591393	0.068166	0.170043
	C6478	C	0.521829	0.002169	0.331127
	C6479	C	0.584270	0.065041	0.332334
	C6480	C	0.521753	0.003368	0.169027
	C6481	C	0.584204	0.065539	0.170222
	C6482	C	0.528989	0.005087	0.331336
	C6483	C	0.591461	0.067650	0.332112
	N6484	N	0.516043	0.169023	0.451867
	N6485	N	0.564733	0.013636	0.451709
	N6486	N	0.551659	0.047845	0.048184
	N6487	N	0.617883	0.015548	0.049622
	N6488	N	0.551522	0.047647	0.452644
	N6489	N	0.617880	0.015500	0.452186
	N6490	N	0.516011	0.168984	0.047433
	N6491	N	0.564793	0.013636	0.049543
	N6492	N	0.551307	0.015355	0.202352
	N6493	N	0.613796	0.077529	0.202069
	N6494	N	0.500750	-0.016996	0.296773
	N6495	N	0.563213	0.045661	0.299194
	N6496	N	0.500801	-0.017155	0.200683
	N6497	N	0.563255	0.045494	0.202752
	N6498	N	0.551295	0.015397	0.299212
	N6499	N	0.613871	0.077229	0.298754
	H6500	H	0.521434	0.150977	0.848765
	H6501	H	0.572951	0.011137	0.848414
	H6502	H	0.546328	0.065987	0.650823
	H6503	H	0.609765	0.020096	0.652316
	H6504	H	0.546192	0.065575	0.849134
	H6505	H	0.609810	0.020096	0.849011
	H6506	H	0.521446	0.151197	0.650683
	H6507	H	0.572931	0.010862	0.652063
	H6508	H	0.543543	0.011069	0.599239
	H6509	H	0.606054	0.073283	0.600366
	H6510	H	0.507537	-0.007307	0.900543
	H6511	H	0.570096	0.054879	0.901868
	H6512	H	0.507692	-0.007758	0.597716
	H6513	H	0.570112	0.055064	0.598675
	H6514	H	0.543517	0.011008	0.900965
	H6515	H	0.605976	0.073493	0.900960
	H6516	H	0.529321	0.122704	1.068211
	H6517	H	0.585052	0.014083	0.852032
	H6518	H	0.538604	0.094662	0.524106
	H6519	H	0.597447	0.020055	0.649483
	H6520	H	0.537905	0.093141	1.068913
	H6521	H	0.597608	0.018964	0.852340
	H6522	H	0.530046	0.124333	0.524038
	H6523	H	0.584932	0.014910	0.649303
	H6524	H	0.531426	0.008833	0.606100
	H6525	H	0.594148	0.069374	0.605824
	H6526	H	0.519238	-0.000589	0.894003
	H6527	H	0.581577	0.063739	0.895647
	H6528	H	0.518846	0.003881	0.605461
	H6529	H	0.581533	0.064397	0.605887
	H6530	H	0.531842	0.004387	0.893917
	H6531	H	0.594149	0.069073	0.895652
	Co6532	Co	0.620129	0.091125	0.625391
	Co6533	Co	0.557627	0.028745	0.625400
	Co6534	Co	0.495143	-0.033952	0.874247
	Co6535	Co	0.557659	0.028704	0.875493
	C6536	C	0.520585	0.153764	0.922565
	C6537	C	0.571663	0.011769	0.922777
	C6538	C	0.547086	0.063160	0.577193
	C6539	C	0.611027	0.019099	0.578297
	C6540	C	0.547000	0.062830	0.922954
	C6541	C	0.611082	0.019132	0.923094
	C6542	C	0.520609	0.153939	0.576795
	C6543	C	0.571628	0.011534	0.577956
	C6544	C	0.544731	0.011677	0.672937
	C6545	C	0.607276	0.073991	0.673730
	C6546	C	0.506538	-0.009006	0.826256
	C6547	C	0.569088	0.053300	0.827728
	C6548	C	0.506622	-0.009264	0.671710
	C6549	C	0.569089	0.053355	0.673158
	C6550	C	0.544739	0.011629	0.827327
	C6551	C	0.607245	0.074142	0.827470
	C6552	C	0.523636	0.143259	0.999432
	C6553	C	0.576250	0.011063	0.500372
	C6554	C	0.543917	0.073243	1.000114
	C6555	C	0.606376	0.020824	0.500659
	C6556	C	0.540321	0.009372	0.750068
	C6557	C	0.602839	0.071824	0.750610
	C6558	C	0.510626	-0.004115	0.749265
	C6559	C	0.573163	0.058296	0.750590
	C6560	C	0.528788	0.125583	0.999424
	C6561	C	0.583902	0.013401	0.500581
	C6562	C	0.538781	0.090964	0.999963
	C6563	C	0.598670	0.019698	0.500738
	C6564	C	0.532744	0.006682	0.750065
	C6565	C	0.595240	0.069184	0.750574
	C6566	C	0.517969	0.000957	0.749724
	C6567	C	0.580506	0.063426	0.750666
	C6568	C	0.531252	0.116492	1.038145
	C6569	C	0.587739	0.015007	0.917914
	C6570	C	0.536502	0.100652	0.513800
	C6571	C	0.594821	0.018553	0.583467
	C6572	C	0.536117	0.099709	1.038322
	C6573	C	0.594898	0.017994	0.917916
	C6574	C	0.531657	0.117459	0.513671
	C6575	C	0.587655	0.015587	0.583502
	C6576	C	0.528809	0.006697	0.669618
	C6577	C	0.591414	0.068163	0.669576
	C6578	C	0.521859	0.001465	0.830255
	C6579	C	0.584276	0.065054	0.831636
	C6580	C	0.521641	0.003898	0.669539
	C6581	C	0.584255	0.065274	0.669621
	C6582	C	0.529026	0.004304	0.830402
	C6583	C	0.591436	0.067892	0.831794
	N6584	N	0.516049	0.169043	0.951648
	N6585	N	0.564781	0.013704	0.951535
	N6586	N	0.551577	0.047771	0.548022
	N6587	N	0.617876	0.015590	0.549549
	N6588	N	0.551585	0.047654	0.952238
	N6589	N	0.617919	0.015646	0.952452
	N6590	N	0.516089	0.169249	0.547484
	N6591	N	0.564742	0.013547	0.549626
	N6592	N	0.551275	0.015252	0.701999
	N6593	N	0.613828	0.077559	0.702387
	N6594	N	0.500734	-0.017147	0.796975
	N6595	N	0.563235	0.045415	0.798377
	N6596	N	0.500778	-0.017304	0.700590
	N6597	N	0.563226	0.045461	0.702205
	N6598	N	0.551283	0.015216	0.798913
	N6599	N	0.613811	0.077651	0.798794
	H6600	H	0.520450	0.258203	0.347870
	H6601	H	0.583697	0.212973	0.349023
	H6602	H	0.557127	0.267915	0.153343
	H6603	H	0.608644	0.127838	0.151146
	H6604	H	0.557193	0.268140	0.348487
	H6605	H	0.608668	0.127553	0.348294
	H6606	H	0.520297	0.257614	0.150652
	H6607	H	0.583963	0.213476	0.151633
	H6608	H	0.560130	0.223820	0.098791
	H6609	H	0.622555	0.286751	0.098869
	H6610	H	0.524087	0.205446	0.399586
	H6611	H	0.586731	0.267710	0.400742
	H6612	H	0.524087	0.205543	0.098111
	H6613	H	0.586658	0.268148	0.100233
	H6614	H	0.560020	0.224102	0.401678
	H6615	H	0.622691	0.286298	0.402054
	H6616	H	0.532551	0.260057	0.649132
	H6617	H	0.592212	0.185765	0.591863
	H6618	H	0.545032	0.265225	0.149483
	H6619	H	0.600218	0.155046	-0.108365
	H6620	H	0.545042	0.265384	0.649515
	H6621	H	0.600759	0.156065	0.592082
	H6622	H	0.532500	0.259856	0.149109
	H6623	H	0.591674	0.184733	-0.108935
	H6624	H	0.548551	0.215859	0.102978
	H6625	H	0.611184	0.277545	0.105452
	H6626	H	0.536096	0.208753	0.395664
	H6627	H	0.598623	0.272326	0.395360
	H6628	H	0.535977	0.210842	0.102853
	H6629	H	0.598617	0.272221	0.104919
	H6630	H	0.548687	0.213756	0.396555
	H6631	H	0.611189	0.277362	0.395300
	Co6632	Co	0.635013	0.313093	0.124775
	Co6633	Co	0.572543	0.250501	0.125603
	Co6634	Co	0.509984	0.187942	0.374480
	Co6635	Co	0.572536	0.250543	0.375739
	C6636	C	0.519153	0.259041	0.422048
	C6637	C	0.583008	0.216038	0.422927
	C6638	C	0.558443	0.267164	0.078631
	C6639	C	0.609495	0.125223	0.077407
	C6640	C	0.558510	0.267370	0.423163
	C6641	C	0.609505	0.124953	0.422563
	C6642	C	0.519081	0.258789	0.076544
	C6643	C	0.583133	0.216251	0.077496
	C6644	C	0.561139	0.225637	0.172953
	C6645	C	0.623614	0.288275	0.173075
	C6646	C	0.522899	0.204888	0.326158
	C6647	C	0.585503	0.267172	0.327422
	C6648	C	0.522901	0.204975	0.172136
	C6649	C	0.585455	0.267378	0.173293
	C6650	C	0.561100	0.225679	0.327571
	C6651	C	0.623653	0.288235	0.327698
	C6652	C	0.523796	0.257419	0.499499
	C6653	C	0.586200	0.205794	0.000388
	C6654	C	0.553843	0.267858	0.500336
	C6655	C	0.606463	0.135767	0.000448
	C6656	C	0.557044	0.220665	0.250118
	C6657	C	0.619565	0.283288	0.250426
	C6658	C	0.527334	0.207188	0.249222
	C6659	C	0.589920	0.269477	0.250254
	C6660	C	0.531486	0.258808	0.499958
	C6661	C	0.591353	0.188109	0.000345
	C6662	C	0.546225	0.265373	0.500193
	C6663	C	0.601337	0.153491	0.000524
	C6664	C	0.549698	0.215552	0.249677
	C6665	C	0.612224	0.278158	0.250348
	C6666	C	0.534939	0.209756	0.249252
	C6667	C	0.597515	0.272092	0.250233
	C6668	C	0.535247	0.260914	0.583100
	C6669	C	0.593982	0.179219	0.550681
	C6670	C	0.542361	0.263857	0.083569
	C6671	C	0.598545	0.161916	-0.060694
	C6672	C	0.542403	0.264053	0.583203
	C6673	C	0.598835	0.162399	0.550827
	C6674	C	0.535210	0.260709	0.083168
	C6675	C	0.593710	0.178727	-0.060611
	C6676	C	0.545891	0.214364	0.167834
	C6677	C	0.608467	0.276302	0.169295
	C6678	C	0.538798	0.210319	0.331190
	C6679	C	0.601307	0.273470	0.331248
	C6680	C	0.538729	0.211512	0.167488
	C6681	C	0.601313	0.273389	0.169158
	C6682	C	0.545963	0.213160	0.331428
	C6683	C	0.608457	0.276410	0.331216
	N6684	N	0.512300	0.262341	0.450112
	N6685	N	0.578552	0.231429	0.452511
	N6686	N	0.565332	0.265285	0.049875
	N6687	N	0.614050	0.110019	0.048059
	N6688	N	0.565373	0.265432	0.451697
	N6689	N	0.614045	0.109728	0.452325
	N6690	N	0.512233	0.262095	0.047426
	N6691	N	0.578577	0.231468	0.048445
	N6692	N	0.566984	0.233580	0.202380
	N6693	N	0.629500	0.296105	0.201998
	N6694	N	0.516333	0.201521	0.297468
	N6695	N	0.578925	0.263864	0.298787
	N6696	N	0.516342	0.201569	0.200777
	N6697	N	0.578912	0.263934	0.202052
	N6698	N	0.566955	0.233681	0.298679
	N6699	N	0.629528	0.296104	0.298308
	H6700	H	0.520403	0.258482	0.847285
	H6701	H	0.583891	0.213369	0.849808
	H6702	H	0.557206	0.267680	0.652721
	H6703	H	0.608867	0.128477	0.650646
	H6704	H	0.557152	0.267895	0.848913
	H6705	H	0.608885	0.128229	0.849792
	H6706	H	0.520364	0.257826	0.651642
	H6707	H	0.584113	0.213550	0.650451
	H6708	H	0.560172	0.223856	0.597980
	H6709	H	0.622468	0.286302	0.598467
	H6710	H	0.524137	0.205416	0.900063
	H6711	H	0.586477	0.268261	0.901955
	H6712	H	0.524048	0.205911	0.598386
	H6713	H	0.586546	0.268413	0.599499
	H6714	H	0.560017	0.223893	0.901455
	H6715	H	0.622511	0.286328	0.901690
	H6716	H	0.532704	0.258479	0.851711
	H6717	H	0.592482	0.186398	1.109629
	H6718	H	0.545243	0.263632	0.351519
	H6719	H	0.600429	0.155445	0.406532
	H6720	H	0.545192	0.263866	0.852005
	H6721	H	0.601060	0.156807	1.109122
	H6722	H	0.532687	0.258429	0.351148
	H6723	H	0.591879	0.185057	0.406452
	H6724	H	0.548710	0.213987	0.894540
	H6725	H	0.611069	0.276796	0.604433
	H6726	H	0.536002	0.210555	0.602502
	H6727	H	0.598440	0.272999	0.896746
	H6728	H	0.536130	0.208992	0.894427
	H6729	H	0.598494	0.271826	0.604966
	H6730	H	0.548615	0.215721	0.602176
	H6731	H	0.611012	0.277998	0.897162
	Co6732	Co	0.634946	0.312754	0.624513
	Co6733	Co	0.572530	0.250401	0.625126
	Co6734	Co	0.510004	0.188056	0.874562
	Co6735	Co	0.572480	0.250376	0.875983
	C6736	C	0.519134	0.259049	0.921621
	C6737	C	0.583083	0.216175	0.923379
	C6738	C	0.558493	0.267119	0.578195
	C6739	C	0.609592	0.125411	0.576849
	C6740	C	0.558441	0.267124	0.923278
	C6741	C	0.609596	0.125438	0.923202
	C6742	C	0.519118	0.259048	0.576903
	C6743	C	0.583210	0.216310	0.577004
	C6744	C	0.561166	0.225423	0.672338
	C6745	C	0.623544	0.288121	0.672766
	C6746	C	0.522939	0.204956	0.826171
	C6747	C	0.585302	0.267600	0.827952
	C6748	C	0.522885	0.205186	0.672234
	C6749	C	0.585333	0.267617	0.673658
	C6750	C	0.561072	0.225522	0.827120
	C6751	C	0.623599	0.288087	0.827575
	C6752	C	0.523746	0.257365	0.999326
	C6753	C	0.586217	0.205695	0.499622
	C6754	C	0.553834	0.267791	1.000860
	C6755	C	0.606439	0.135614	0.499300
	C6756	C	0.557093	0.220543	0.749309
	C6757	C	0.619478	0.283123	0.750334
	C6758	C	0.527345	0.207216	0.749012
	C6759	C	0.589786	0.269758	0.750855
	C6760	C	0.531446	0.258729	1.000157
	C6761	C	0.591335	0.187976	0.499017
	C6762	C	0.546199	0.265352	1.000786
	C6763	C	0.601326	0.153364	0.498826
	C6764	C	0.549721	0.215452	0.748557
	C6765	C	0.612142	0.278061	0.750595
	C6766	C	0.534964	0.209756	0.748502
	C6767	C	0.597364	0.272370	0.750893
	C6768	C	0.535335	0.259877	0.917868
	C6769	C	0.594148	0.179657	1.061371
	C6770	C	0.542507	0.262969	0.417467
	C6771	C	0.598656	0.162088	0.446864
	C6772	C	0.542474	0.263024	0.918041
	C6773	C	0.598989	0.162868	1.061431
	C6774	C	0.535352	0.259809	0.417221
	C6775	C	0.593803	0.178892	0.447255
	C6776	C	0.545959	0.213291	0.829999
	C6777	C	0.608382	0.275998	0.669277
	C6778	C	0.538750	0.211384	0.666852
	C6779	C	0.601175	0.273879	0.832360
	C6780	C	0.538809	0.210478	0.829877
	C6781	C	0.601200	0.273206	0.669219
	C6782	C	0.545908	0.214152	0.666695
	C6783	C	0.608353	0.276695	0.832176
	N6784	N	0.512279	0.262260	0.949880
	N6785	N	0.578544	0.231425	0.952842
	N6786	N	0.565375	0.265328	0.549589
	N6787	N	0.614092	0.110019	0.548007
	N6788	N	0.565320	0.265247	0.952109
	N6789	N	0.614107	0.110136	0.952884
	N6790	N	0.512266	0.262367	0.547860
	N6791	N	0.578656	0.231556	0.548105
	N6792	N	0.567017	0.233442	0.702166
	N6793	N	0.629391	0.296036	0.701860
	N6794	N	0.516360	0.201565	0.797730
	N6795	N	0.578754	0.264161	0.799064
	N6796	N	0.516309	0.201783	0.701143
	N6797	N	0.578781	0.264129	0.702286
	N6798	N	0.566952	0.233512	0.798569
	N6799	N	0.629445	0.296002	0.798306
	H6800	H	0.515360	0.355528	0.346668
	H6801	H	0.582863	0.320293	0.349054
	H6802	H	0.552354	0.360251	0.152975
	H6803	H	0.619629	0.330471	0.151941
	H6804	H	0.552446	0.360341	0.348567
	H6805	H	0.619647	0.330476	0.347925
	H6806	H	0.515224	0.354848	0.151160
	H6807	H	0.582879	0.320976	0.153613
	H6808	H	0.554619	0.316662	0.098761
	H6809	H	0.617046	0.379217	0.098045
	H6810	H	0.517941	0.302058	0.400574
	H6811	H	0.580536	0.364448	0.402888
	H6812	H	0.518032	0.301918	0.097072
	H6813	H	0.580487	0.364676	0.099401
	H6814	H	0.554487	0.316948	0.402656
	H6815	H	0.617049	0.379347	0.401889
	H6816	H	0.527703	0.354613	0.349549
	H6817	H	0.595044	0.321892	0.352054
	H6818	H	0.540037	0.360865	0.149658
	H6819	H	0.607686	0.326286	0.148956
	H6820	H	0.540356	0.358103	0.350870
	H6821	H	0.607557	0.327156	0.351597
	H6822	H	0.527389	0.356947	0.149231
	H6823	H	0.595158	0.320786	0.149584
	H6824	H	0.542650	0.310238	0.399763
	H6825	H	0.605039	0.374631	0.399547
	H6826	H	0.529775	0.309477	0.100307
	H6827	H	0.592401	0.369877	0.101847
	H6828	H	0.529966	0.306462	0.399250
	H6829	H	0.592382	0.371216	0.399968
	H6830	H	0.542447	0.312984	0.100973
	H6831	H	0.605053	0.373583	0.101357
	Co6832	Co	0.630154	0.402776	0.124551
	Co6833	Co	0.567584	0.340273	0.125741
	Co6834	Co	0.505124	0.277452	0.373938
	Co6835	Co	0.567607	0.340126	0.376488
	C6836	C	0.514089	0.356393	0.421298
	C6837	C	0.581609	0.321424	0.423507
	C6838	C	0.553607	0.359283	0.078249
	C6839	C	0.620962	0.329906	0.077502
	C6840	C	0.553703	0.359222	0.423367
	C6841	C	0.620944	0.329747	0.422774
	C6842	C	0.513997	0.356018	0.076322
	C6843	C	0.581623	0.321738	0.078947
	C6844	C	0.555665	0.318124	0.173041
	C6845	C	0.618164	0.380601	0.172397
	C6846	C	0.516883	0.300465	0.326415
	C6847	C	0.579398	0.363042	0.328753
	C6848	C	0.516931	0.300446	0.171516
	C6849	C	0.579377	0.363124	0.173674
	C6850	C	0.555610	0.318252	0.327967
	C6851	C	0.618169	0.380647	0.327561
	C6852	C	0.518705	0.354625	0.498935
	C6853	C	0.586252	0.319870	0.001478
	C6854	C	0.549069	0.360891	0.500589
	C6855	C	0.616320	0.330319	0.000093
	C6856	C	0.551321	0.314785	0.250425
	C6857	C	0.613813	0.377149	0.250014
	C6858	C	0.521157	0.304289	0.249292
	C6859	C	0.583677	0.366872	0.251102
	C6860	C	0.526412	0.355527	0.499306
	C6861	C	0.593956	0.321165	0.001129
	C6862	C	0.541299	0.360084	0.500103
	C6863	C	0.608670	0.327850	0.000381
	C6864	C	0.543719	0.311699	0.250273
	C6865	C	0.606234	0.374148	0.250424
	C6866	C	0.528734	0.307672	0.249824
	C6867	C	0.591233	0.370229	0.250946
	C6868	C	0.530324	0.355898	0.416260
	C6869	C	0.597728	0.322918	0.417807
	C6870	C	0.537370	0.359496	0.083367
	C6871	C	0.604956	0.325534	0.083317
	C6872	C	0.537542	0.358053	0.416786
	C6873	C	0.604865	0.326177	0.417559
	C6874	C	0.530156	0.357246	0.083110
	C6875	C	0.597799	0.322463	0.083709
	C6876	C	0.539895	0.309914	0.333312
	C6877	C	0.602357	0.373485	0.333487
	C6878	C	0.532537	0.309591	0.166763
	C6879	C	0.595102	0.370945	0.167930
	C6880	C	0.532655	0.307894	0.333031
	C6881	C	0.595090	0.371608	0.333809
	C6882	C	0.539777	0.311596	0.167136
	C6883	C	0.602359	0.373000	0.167651
	N6884	N	0.507228	0.359762	0.449799
	N6885	N	0.574762	0.324800	0.452472
	N6886	N	0.560453	0.355625	0.049538
	N6887	N	0.627848	0.327966	0.048696
	N6888	N	0.560540	0.355721	0.452411
	N6889	N	0.627822	0.327924	0.451208
	N6890	N	0.507150	0.359477	0.047217
	N6891	N	0.574779	0.325078	0.049954
	N6892	N	0.561931	0.323946	0.202309
	N6893	N	0.624418	0.386502	0.201210
	N6894	N	0.510720	0.294041	0.297074
	N6895	N	0.573228	0.356647	0.299676
	N6896	N	0.510747	0.294006	0.200144
	N6897	N	0.573212	0.356721	0.202827
	N6898	N	0.561923	0.323901	0.299554
	N6899	N	0.624436	0.386379	0.298319
	H6900	H	0.515337	0.355477	0.846999
	H6901	H	0.582885	0.320258	0.849738
	H6902	H	0.552375	0.360074	0.651925
	H6903	H	0.619640	0.330303	0.652273
	H6904	H	0.552410	0.360355	0.848773
	H6905	H	0.619644	0.330029	0.847868
	H6906	H	0.515274	0.355009	0.650760
	H6907	H	0.582881	0.320669	0.653051
	H6908	H	0.554496	0.316758	0.598226
	H6909	H	0.617003	0.379468	0.597432
	H6910	H	0.517856	0.302121	0.901342
	H6911	H	0.580532	0.364241	0.902900
	H6912	H	0.517949	0.301946	0.597533
	H6913	H	0.580432	0.364685	0.599142
	H6914	H	0.554415	0.316821	0.902198
	H6915	H	0.617047	0.378944	0.901511
	H6916	H	0.527591	0.354813	0.850439
	H6917	H	0.594999	0.322124	0.852645
	H6918	H	0.540095	0.361100	0.648744
	H6919	H	0.607561	0.326968	0.649529
	H6920	H	0.540224	0.358847	0.850947
	H6921	H	0.607495	0.327584	0.851670
	H6922	H	0.527422	0.357390	0.648856
	H6923	H	0.595102	0.321517	0.649574
	H6924	H	0.542420	0.312902	0.600293
	H6925	H	0.604985	0.373915	0.600668
	H6926	H	0.529882	0.307104	0.899198
	H6927	H	0.592393	0.370879	0.899992
	H6928	H	0.529770	0.309082	0.600300
	H6929	H	0.592359	0.370358	0.601616
	H6930	H	0.542557	0.310716	0.899277
	H6931	H	0.605047	0.374432	0.899553
	Co6932	Co	0.630112	0.402658	0.624891
	Co6933	Co	0.567617	0.340077	0.625616
	Co6934	Co	0.505084	0.277454	0.874052
	Co6935	Co	0.567611	0.340060	0.876130
	C6936	C	0.514052	0.356255	0.921339
	C6937	C	0.581613	0.321395	0.923955
	C6938	C	0.553675	0.359193	0.578172
	C6939	C	0.620948	0.329689	0.577854
	C6940	C	0.553609	0.359299	0.923046
	C6941	C	0.620948	0.329588	0.922416
	C6942	C	0.514066	0.356114	0.576352
	C6943	C	0.581634	0.321460	0.578734
	C6944	C	0.555620	0.318122	0.673097
	C6945	C	0.618142	0.380637	0.672057
	C6946	C	0.516826	0.300569	0.826531
	C6947	C	0.579444	0.362926	0.828354
	C6948	C	0.516848	0.300594	0.672013
	C6949	C	0.579404	0.363176	0.673487
	C6950	C	0.555581	0.318143	0.827964
	C6951	C	0.618170	0.380294	0.827064
	C6952	C	0.518638	0.354437	0.999138
	C6953	C	0.586258	0.319810	0.500947
	C6954	C	0.548995	0.361066	1.000618
	C6955	C	0.616308	0.330313	0.500251
	C6956	C	0.551266	0.314802	0.750431
	C6957	C	0.613829	0.377100	0.749572
	C6958	C	0.521113	0.304453	0.749483
	C6959	C	0.583673	0.366918	0.750936
	C6960	C	0.526382	0.355366	0.999835
	C6961	C	0.593940	0.321249	0.500674
	C6962	C	0.541254	0.360241	1.000380
	C6963	C	0.608659	0.327962	0.500313
	C6964	C	0.543649	0.311837	0.749810
	C6965	C	0.606210	0.374160	0.750034
	C6966	C	0.528662	0.307908	0.749681
	C6967	C	0.591219	0.370372	0.750905
	C6968	C	0.530261	0.356144	0.916763
	C6969	C	0.597717	0.323013	0.918155
	C6970	C	0.537391	0.359720	0.582947
	C6971	C	0.604899	0.325948	0.583331
	C6972	C	0.537464	0.358445	0.917024
	C6973	C	0.604854	0.326250	0.917789
	C6974	C	0.530168	0.357588	0.582480
	C6975	C	0.597754	0.322744	0.583446
	C6976	C	0.539748	0.311478	0.666357
	C6977	C	0.602304	0.373244	0.667216
	C6978	C	0.532559	0.308363	0.832805
	C6979	C	0.595098	0.371528	0.833813
	C6980	C	0.532491	0.309581	0.666545
	C6981	C	0.595068	0.371280	0.667531
	C6982	C	0.539815	0.310247	0.832940
	C6983	C	0.602358	0.373380	0.833331
	N6984	N	0.507191	0.359697	0.949988
	N6985	N	0.574752	0.324832	0.952588
	N6986	N	0.560535	0.355674	0.549579
	N6987	N	0.627832	0.327899	0.549238
	N6988	N	0.560449	0.355555	0.952035
	N6989	N	0.627825	0.327795	0.950903
	N6990	N	0.507218	0.359647	0.547386
	N6991	N	0.574787	0.324840	0.549790
	N6992	N	0.561917	0.323773	0.702046
	N6993	N	0.624425	0.386296	0.701034
	N6994	N	0.510654	0.294175	0.797633
	N6995	N	0.573262	0.356556	0.799589
	N6996	N	0.510681	0.294129	0.700500
	N6997	N	0.573254	0.356636	0.702508
	N6998	N	0.561862	0.323923	0.799242
	N6999	N	0.624446	0.386124	0.798196
	H7000	H	0.510189	0.452221	0.348272
	H7001	H	0.577801	0.417520	0.349464
	H7002	H	0.547178	0.456402	0.152852
	H7003	H	0.614932	0.423134	0.151426
	H7004	H	0.547314	0.457555	0.349888
	H7005	H	0.614943	0.422596	0.348056
	H7006	H	0.510029	0.451707	0.150908
	H7007	H	0.577796	0.417843	0.153566
	H7008	H	0.549675	0.412685	0.099546
	H7009	H	0.612056	0.476059	0.098113
	H7010	H	0.512882	0.399105	0.400915
	H7011	H	0.575555	0.461410	0.403275
	H7012	H	0.513078	0.398625	0.097553
	H7013	H	0.575469	0.461391	0.099730
	H7014	H	0.549489	0.413559	0.403367
	H7015	H	0.612034	0.475925	0.400914
	H7016	H	0.522219	0.453970	0.650167
	H7017	H	0.590063	0.419164	0.350839
	H7018	H	0.534858	0.457123	0.149527
	H7019	H	0.602736	0.421485	0.149892
	H7020	H	0.534886	0.457616	0.650319
	H7021	H	0.602677	0.423064	0.351018
	H7022	H	0.522186	0.453608	0.149022
	H7023	H	0.590117	0.417723	0.150001
	H7024	H	0.537527	0.408939	0.101564
	H7025	H	0.600100	0.469786	0.100285
	H7026	H	0.524966	0.403168	0.399608
	H7027	H	0.587418	0.467546	0.399791
	H7028	H	0.524878	0.405590	0.101504
	H7029	H	0.587413	0.466510	0.100694
	H7030	H	0.537698	0.406127	0.399848
	H7031	H	0.600121	0.470897	0.399183
	Co7032	Co	0.625020	0.500134	0.124810
	Co7033	Co	0.562497	0.437222	0.126105
	Co7034	Co	0.499994	0.374814	0.373931
	Co7035	Co	0.562534	0.437332	0.377270
	C7036	C	0.508885	0.453260	0.422360
	C7037	C	0.576561	0.418677	0.423554
	C7038	C	0.548441	0.455759	0.078748
	C7039	C	0.616187	0.421853	0.077178
	C7040	C	0.548519	0.456238	0.424365
	C7041	C	0.616179	0.421735	0.422377
	C7042	C	0.508802	0.452982	0.076622
	C7043	C	0.576566	0.418672	0.078446
	C7044	C	0.550716	0.414360	0.174112
	C7045	C	0.613151	0.477431	0.172242
	C7046	C	0.511808	0.397540	0.326727
	C7047	C	0.574393	0.459974	0.329078
	C7048	C	0.511900	0.397372	0.171983
	C7049	C	0.574345	0.459935	0.174234
	C7050	C	0.550649	0.414685	0.328835
	C7051	C	0.613168	0.477240	0.327039
	C7052	C	0.513481	0.451273	0.500112
	C7053	C	0.581194	0.416942	0.000872
	C7054	C	0.543863	0.457561	0.501409
	C7055	C	0.611516	0.423500	-0.000100
	C7056	C	0.546373	0.410839	0.251419
	C7057	C	0.608854	0.473629	0.249523
	C7058	C	0.516159	0.401123	0.249830
	C7059	C	0.578672	0.463664	0.251244
	C7060	C	0.521245	0.452003	0.500634
	C7061	C	0.588897	0.417903	0.000574
	C7062	C	0.536141	0.456644	0.500908
	C7063	C	0.603767	0.422722	0.000377
	C7064	C	0.538799	0.407642	0.251018
	C7065	C	0.601279	0.470473	0.249566
	C7066	C	0.523749	0.404159	0.250470
	C7067	C	0.586255	0.466816	0.250284
	C7068	C	0.525007	0.454059	0.583824
	C7069	C	0.592779	0.419635	0.417274
	C7070	C	0.532185	0.456003	0.083241
	C7071	C	0.599983	0.421083	0.083717
	C7072	C	0.532235	0.456193	0.584015
	C7073	C	0.599991	0.421933	0.417161
	C7074	C	0.524960	0.453865	0.082987
	C7075	C	0.592763	0.418830	0.083676
	C7076	C	0.534873	0.407483	0.167974
	C7077	C	0.597385	0.469393	0.166683
	C7078	C	0.527658	0.404362	0.333374
	C7079	C	0.590146	0.468014	0.333259
	C7080	C	0.527606	0.405740	0.167944
	C7081	C	0.590124	0.467498	0.166956
	C7082	C	0.534937	0.406040	0.333640
	C7083	C	0.597411	0.469853	0.332896
	N7084	N	0.502019	0.456832	0.450647
	N7085	N	0.569728	0.421959	0.452630
	N7086	N	0.555295	0.452369	0.050359
	N7087	N	0.623005	0.418019	0.047948
	N7088	N	0.555363	0.452639	0.453350
	N7089	N	0.623028	0.418102	0.451154
	N7090	N	0.501967	0.456712	0.047624
	N7091	N	0.569718	0.422135	0.049646
	N7092	N	0.556912	0.420621	0.202965
	N7093	N	0.619365	0.483616	0.201306
	N7094	N	0.505626	0.391270	0.297232
	N7095	N	0.568175	0.453795	0.300463
	N7096	N	0.505666	0.391250	0.200284
	N7097	N	0.568162	0.453715	0.203377
	N7098	N	0.556861	0.420872	0.300184
	N7099	N	0.619380	0.483468	0.298038
	H7100	H	0.510103	0.452113	0.847043
	H7101	H	0.577768	0.417540	0.848825
	H7102	H	0.547152	0.456166	0.653574
	H7103	H	0.614968	0.423298	0.652327
	H7104	H	0.547296	0.457301	0.849812
	H7105	H	0.614800	0.422320	0.847612
	H7106	H	0.510015	0.451649	0.651626
	H7107	H	0.577941	0.417787	0.652119
	H7108	H	0.549706	0.412512	0.599458
	H7109	H	0.611956	0.476535	0.598524
	H7110	H	0.512917	0.399252	0.900751
	H7111	H	0.575492	0.461525	0.903723
	H7112	H	0.513035	0.398614	0.597601
	H7113	H	0.575428	0.461510	0.600111
	H7114	H	0.549365	0.413896	0.902786
	H7115	H	0.612281	0.475046	0.902371
	H7116	H	0.522439	0.451330	0.850177
	H7117	H	0.589967	0.419074	0.851130
	H7118	H	0.535132	0.454860	0.351552
	H7119	H	0.602764	0.422003	0.649942
	H7120	H	0.535079	0.455003	0.851301
	H7121	H	0.602581	0.423060	0.851329
	H7122	H	0.522476	0.450998	0.351530
	H7123	H	0.590113	0.418176	0.649990
	H7124	H	0.537543	0.409082	0.601284
	H7125	H	0.600180	0.469436	0.601484
	H7126	H	0.524934	0.403177	0.898528
	H7127	H	0.587429	0.467618	0.900391
	H7128	H	0.524857	0.405682	0.600561
	H7129	H	0.587448	0.466251	0.601990
	H7130	H	0.537642	0.406640	0.899342
	H7131	H	0.600088	0.470977	0.899285
	Co7132	Co	0.625015	0.500111	0.624404
	Co7133	Co	0.562539	0.436977	0.626794
	Co7134	Co	0.500015	0.374904	0.873796
	Co7135	Co	0.562493	0.437343	0.876886
	C7136	C	0.508847	0.453222	0.921675
	C7137	C	0.576548	0.418706	0.923366
	C7138	C	0.548443	0.455474	0.579149
	C7139	C	0.616212	0.422045	0.577597
	C7140	C	0.548482	0.456088	0.923935
	C7141	C	0.616128	0.421384	0.922070
	C7142	C	0.508799	0.452985	0.577016
	C7143	C	0.576632	0.418752	0.578318
	C7144	C	0.550726	0.414254	0.673713
	C7145	C	0.613088	0.477669	0.672856
	C7146	C	0.511846	0.397579	0.826260
	C7147	C	0.574381	0.459994	0.829090
	C7148	C	0.511899	0.397332	0.671686
	C7149	C	0.574363	0.459832	0.674192
	C7150	C	0.550577	0.414947	0.828459
	C7151	C	0.613240	0.476872	0.827492
	C7152	C	0.513436	0.451260	0.999386
	C7153	C	0.581233	0.417138	0.500567
	C7154	C	0.543831	0.457555	1.001088
	C7155	C	0.611573	0.423704	0.500087
	C7156	C	0.546343	0.411000	0.750854
	C7157	C	0.608886	0.473678	0.750184
	C7158	C	0.516170	0.401080	0.749121
	C7159	C	0.578659	0.463577	0.751360
	C7160	C	0.521172	0.452063	0.999754
	C7161	C	0.588964	0.418162	0.500355
	C7162	C	0.536093	0.456660	1.000520
	C7163	C	0.603845	0.422929	0.500282
	C7164	C	0.538739	0.407896	0.750326
	C7165	C	0.601291	0.470534	0.750357
	C7166	C	0.523753	0.404196	0.749652
	C7167	C	0.586258	0.466781	0.750997
	C7168	C	0.525089	0.452559	0.916701
	C7169	C	0.592680	0.419558	0.917315
	C7170	C	0.532371	0.454715	0.417726
	C7171	C	0.600025	0.421469	0.583611
	C7172	C	0.532302	0.454840	0.917348
	C7173	C	0.599897	0.421841	0.917257
	C7174	C	0.525161	0.452395	0.417629
	C7175	C	0.592810	0.419214	0.583724
	C7176	C	0.534850	0.407698	0.667179
	C7177	C	0.597412	0.469202	0.667565
	C7178	C	0.527639	0.404543	0.832829
	C7179	C	0.590126	0.468019	0.833864
	C7180	C	0.527598	0.405865	0.666791
	C7181	C	0.590154	0.467368	0.668150
	C7182	C	0.534899	0.406356	0.833209
	C7183	C	0.597378	0.469874	0.833386
	N7184	N	0.502001	0.456867	0.950082
	N7185	N	0.569701	0.422113	0.952177
	N7186	N	0.555304	0.452097	0.550769
	N7187	N	0.623061	0.418274	0.548570
	N7188	N	0.555321	0.452599	0.952988
	N7189	N	0.622972	0.417750	0.950704
	N7190	N	0.501953	0.456682	0.547664
	N7191	N	0.569775	0.422019	0.550076
	N7192	N	0.556932	0.420485	0.703224
	N7193	N	0.619347	0.483603	0.701223
	N7194	N	0.505610	0.391520	0.797504
	N7195	N	0.568163	0.453760	0.800107
	N7196	N	0.505677	0.391230	0.700406
	N7197	N	0.568142	0.453702	0.703242
	N7198	N	0.556843	0.420881	0.800065
	N7199	N	0.619457	0.483103	0.798437
	H7200	H	0.505406	0.544695	0.347433
	H7201	H	0.572612	0.514482	0.349481
	H7202	H	0.541980	0.553966	0.152661
	H7203	H	0.609751	0.519746	0.151748
	H7204	H	0.542149	0.554380	0.349911
	H7205	H	0.609715	0.519351	0.347872
	H7206	H	0.505327	0.544404	0.152204
	H7207	H	0.572678	0.515066	0.152672
	H7208	H	0.544571	0.510330	0.099330
	H7209	H	0.606985	0.573081	0.097998
	H7210	H	0.507896	0.495783	0.401376
	H7211	H	0.570554	0.558035	0.403141
	H7212	H	0.507988	0.495569	0.097146
	H7213	H	0.570366	0.558480	0.099390
	H7214	H	0.544362	0.510803	0.402364
	H7215	H	0.607044	0.572991	0.401764
	H7216	H	0.517560	0.546589	0.350955
	H7217	H	0.584811	0.516110	0.351614
	H7218	H	0.529779	0.554213	0.148825
	H7219	H	0.597517	0.518067	0.149882
	H7220	H	0.530069	0.552206	0.351670
	H7221	H	0.597454	0.519937	0.351293
	H7222	H	0.517282	0.548896	0.149170
	H7223	H	0.584844	0.514388	0.149559
	H7224	H	0.532505	0.505943	0.100490
	H7225	H	0.595077	0.567872	0.399724
	H7226	H	0.520064	0.499340	0.399484
	H7227	H	0.582474	0.562414	0.101570
	H7228	H	0.519874	0.502001	0.100577
	H7229	H	0.582377	0.564551	0.400379
	H7230	H	0.532708	0.502736	0.399537
	H7231	H	0.595145	0.566028	0.101082
	Co7232	Co	0.619858	0.597376	0.124500
	Co7233	Co	0.557355	0.534928	0.126704
	Co7234	Co	0.494868	0.472096	0.374130
	Co7235	Co	0.557372	0.534754	0.377324
	C7236	C	0.504085	0.545181	0.422065
	C7237	C	0.571369	0.515653	0.424091
	C7238	C	0.543290	0.553234	0.078745
	C7239	C	0.610974	0.518654	0.077241
	C7240	C	0.543414	0.553498	0.424100
	C7241	C	0.610980	0.518587	0.422317
	C7242	C	0.504030	0.545065	0.077394
	C7243	C	0.571378	0.515900	0.078675
	C7244	C	0.545626	0.511834	0.173688
	C7245	C	0.608078	0.574420	0.172461
	C7246	C	0.506830	0.494212	0.326944
	C7247	C	0.569397	0.556829	0.328885
	C7248	C	0.506876	0.494168	0.172059
	C7249	C	0.569309	0.557007	0.174148
	C7250	C	0.545520	0.512088	0.328250
	C7251	C	0.608090	0.574487	0.327187
	C7252	C	0.508728	0.544409	0.499773
	C7253	C	0.575946	0.513887	0.000680
	C7254	C	0.538745	0.555051	0.501499
	C7255	C	0.606343	0.520115	-0.000133
	C7256	C	0.541285	0.508166	0.250586
	C7257	C	0.603835	0.570594	0.249818
	C7258	C	0.511197	0.497626	0.249825
	C7259	C	0.573667	0.560371	0.251237
	C7260	C	0.516336	0.546897	0.499802
	C7261	C	0.583705	0.514628	0.000393
	C7262	C	0.531054	0.553620	0.500773
	C7263	C	0.598598	0.519237	0.000333
	C7264	C	0.533748	0.504706	0.249973
	C7265	C	0.596270	0.567157	0.250333
	C7266	C	0.518782	0.500600	0.250108
	C7267	C	0.581272	0.563351	0.250908
	C7268	C	0.520176	0.548168	0.417083
	C7269	C	0.587556	0.516511	0.417922
	C7270	C	0.527142	0.552565	0.082855
	C7271	C	0.594779	0.517652	0.083500
	C7272	C	0.527312	0.551471	0.417616
	C7273	C	0.594774	0.518745	0.417525
	C7274	C	0.520005	0.549382	0.083021
	C7275	C	0.587564	0.515440	0.083586
	C7276	C	0.529855	0.504373	0.166804
	C7277	C	0.592381	0.566615	0.333707
	C7278	C	0.522696	0.500787	0.333194
	C7279	C	0.585167	0.563721	0.167761
	C7280	C	0.522611	0.502252	0.166959
	C7281	C	0.585131	0.564736	0.333931
	C7282	C	0.529948	0.502750	0.333056
	C7283	C	0.592424	0.565624	0.167397
	N7284	N	0.497204	0.547092	0.450423
	N7285	N	0.564534	0.519338	0.453117
	N7286	N	0.550162	0.550095	0.050608
	N7287	N	0.617823	0.515178	0.048472
	N7288	N	0.550258	0.550168	0.453258
	N7289	N	0.617841	0.515232	0.450794
	N7290	N	0.497142	0.546907	0.048774
	N7291	N	0.564512	0.519599	0.050074
	N7292	N	0.551774	0.518257	0.203094
	N7293	N	0.614238	0.580862	0.201185
	N7294	N	0.500568	0.488379	0.297774
	N7295	N	0.563111	0.550955	0.300352
	N7296	N	0.500592	0.488418	0.200450
	N7297	N	0.563056	0.551142	0.203227
	N7298	N	0.551711	0.518342	0.300112
	N7299	N	0.614257	0.580850	0.298398
	H7300	H	0.505343	0.544153	0.847964
	H7301	H	0.572515	0.514340	0.849032
	H7302	H	0.542077	0.554390	0.653745
	H7303	H	0.609817	0.519963	0.651576
	H7304	H	0.542136	0.554622	0.849135
	H7305	H	0.609716	0.519138	0.848034
	H7306	H	0.505371	0.544088	0.651479
	H7307	H	0.572651	0.515011	0.653616
	H7308	H	0.544560	0.510485	0.599871
	H7309	H	0.606919	0.573333	0.598861
	H7310	H	0.507916	0.495877	0.901630
	H7311	H	0.570453	0.558392	0.904131
	H7312	H	0.508069	0.495594	0.598310
	H7313	H	0.570380	0.558526	0.600374
	H7314	H	0.544508	0.510581	0.903318
	H7315	H	0.607084	0.572672	0.901104
	H7316	H	0.517497	0.546360	0.851078
	H7317	H	0.584742	0.515661	0.851185
	H7318	H	0.529814	0.554259	0.649795
	H7319	H	0.597652	0.517906	0.649958
	H7320	H	0.529996	0.551912	0.851217
	H7321	H	0.597433	0.519391	0.851014
	H7322	H	0.517313	0.548849	0.648828
	H7323	H	0.584991	0.514296	0.650623
	H7324	H	0.532748	0.502906	0.900397
	H7325	H	0.595120	0.567512	0.900224
	H7326	H	0.519917	0.502075	0.601512
	H7327	H	0.582460	0.562646	0.601883
	H7328	H	0.520063	0.499400	0.899745
	H7329	H	0.582446	0.563930	0.901072
	H7330	H	0.532562	0.505791	0.602156
	H7331	H	0.595146	0.566255	0.601325
	Co7332	Co	0.619859	0.597621	0.624378
	Co7333	Co	0.557404	0.534962	0.626408
	Co7334	Co	0.494866	0.472399	0.874115
	Co7335	Co	0.557354	0.535068	0.877681
	C7336	C	0.504043	0.544910	0.922382
	C7337	C	0.571304	0.515652	0.923429
	C7338	C	0.543376	0.553443	0.579192
	C7339	C	0.611037	0.518865	0.577180
	C7340	C	0.543370	0.553659	0.923767
	C7341	C	0.610955	0.518236	0.922438
	C7342	C	0.504067	0.544916	0.577101
	C7343	C	0.571390	0.515864	0.578936
	C7344	C	0.545620	0.511909	0.674303
	C7345	C	0.608054	0.574681	0.672817
	C7346	C	0.506843	0.494402	0.826973
	C7347	C	0.569361	0.556967	0.829250
	C7348	C	0.506954	0.494206	0.672440
	C7349	C	0.569325	0.557035	0.674576
	C7350	C	0.545590	0.512021	0.828917
	C7351	C	0.608148	0.574300	0.827271
	C7352	C	0.508666	0.544348	0.999903
	C7353	C	0.576015	0.513943	0.501312
	C7354	C	0.538700	0.554925	1.000829
	C7355	C	0.606394	0.520347	0.499922
	C7356	C	0.541359	0.508057	0.751403
	C7357	C	0.603833	0.570601	0.750099
	C7358	C	0.511208	0.497777	0.750136
	C7359	C	0.573676	0.560425	0.751808
	C7360	C	0.516297	0.546752	1.000128
	C7361	C	0.583771	0.514707	0.501116
	C7362	C	0.531017	0.553455	1.000082
	C7363	C	0.598666	0.519422	0.500476
	C7364	C	0.533825	0.504533	0.751144
	C7365	C	0.596274	0.567121	0.750449
	C7366	C	0.518812	0.500735	0.750566
	C7367	C	0.581287	0.563250	0.751341
	C7368	C	0.520142	0.547950	0.917214
	C7369	C	0.587519	0.516118	0.917188
	C7370	C	0.527195	0.552553	0.583457
	C7371	C	0.594884	0.517617	0.583824
	C7372	C	0.527279	0.551177	0.917071
	C7373	C	0.594735	0.518322	0.917249
	C7374	C	0.520036	0.549418	0.582740
	C7375	C	0.587663	0.515374	0.584184
	C7376	C	0.530008	0.502655	0.833966
	C7377	C	0.592406	0.566421	0.833899
	C7378	C	0.522653	0.502374	0.667815
	C7379	C	0.585171	0.563770	0.668027
	C7380	C	0.522748	0.500907	0.833691
	C7381	C	0.585157	0.564436	0.834497
	C7382	C	0.529905	0.504278	0.668237
	C7383	C	0.592429	0.565625	0.667518
	N7384	N	0.497156	0.546800	0.950709
	N7385	N	0.564468	0.519482	0.953023
	N7386	N	0.550235	0.550143	0.550491
	N7387	N	0.617878	0.515423	0.548136
	N7388	N	0.550207	0.550392	0.953017
	N7389	N	0.617800	0.514898	0.951025
	N7390	N	0.497191	0.546871	0.548391
	N7391	N	0.564553	0.519498	0.550370
	N7392	N	0.551763	0.518495	0.703216
	N7393	N	0.614231	0.581094	0.701453
	N7394	N	0.500589	0.488564	0.797566
	N7395	N	0.563085	0.551201	0.800699
	N7396	N	0.500659	0.488421	0.700528
	N7397	N	0.563058	0.551257	0.703465
	N7398	N	0.551731	0.518597	0.800232
	N7399	N	0.614294	0.580896	0.798047
	H7400	H	0.516334	0.746946	0.349007
	H7401	H	0.567836	0.606785	0.349373
	H7402	H	0.540933	0.661515	0.151741
	H7403	H	0.604622	0.617037	0.152018
	H7404	H	0.541192	0.661830	0.349820
	H7405	H	0.604572	0.616720	0.348024
	H7406	H	0.516218	0.746820	0.149841
	H7407	H	0.567797	0.607080	0.153990
	H7408	H	0.538375	0.606729	0.101171
	H7409	H	0.600890	0.669453	0.099681
	H7410	H	0.502366	0.588353	0.402529
	H7411	H	0.564982	0.651008	0.401625
	H7412	H	0.502467	0.588570	0.099027
	H7413	H	0.564858	0.651049	0.098713
	H7414	H	0.538401	0.607135	0.402326
	H7415	H	0.600804	0.669582	0.401010
	H7416	H	0.524223	0.718465	0.410749
	H7417	H	0.579702	0.611803	0.352396
	H7418	H	0.533258	0.689970	-0.017249
	H7419	H	0.592506	0.615104	0.149754
	H7420	H	0.532784	0.688869	0.411353
	H7421	H	0.592263	0.617099	0.352100
	H7422	H	0.524668	0.719553	-0.017789
	H7423	H	0.580015	0.609593	0.150005
	H7424	H	0.526549	0.601229	0.397501
	H7425	H	0.588837	0.666598	0.395788
	H7426	H	0.513781	0.599432	0.105812
	H7427	H	0.576480	0.658957	0.103494
	H7428	H	0.513968	0.596180	0.397095
	H7429	H	0.576223	0.661470	0.395443
	H7430	H	0.526385	0.604357	0.105886
	H7431	H	0.589067	0.664003	0.104260
	Co7432	Co	0.614951	0.687163	0.124576
	Co7433	Co	0.552472	0.624529	0.125780
	Co7434	Co	0.489976	0.561889	0.374374
	Co7435	Co	0.552526	0.624572	0.376596
	C7436	C	0.515525	0.749740	0.422184
	C7437	C	0.566522	0.607637	0.423516
	C7438	C	0.541809	0.658682	0.077800
	C7439	C	0.605887	0.616117	0.077582
	C7440	C	0.541949	0.658960	0.423578
	C7441	C	0.605822	0.615851	0.422168
	C7442	C	0.515395	0.749674	0.075981
	C7443	C	0.566564	0.607623	0.078913
	C7444	C	0.539608	0.607457	0.174774
	C7445	C	0.602089	0.670143	0.173267
	C7446	C	0.501402	0.586878	0.327757
	C7447	C	0.563944	0.649363	0.327730
	C7448	C	0.501489	0.586846	0.173259
	C7449	C	0.563880	0.649406	0.172958
	C7450	C	0.539595	0.607681	0.328669
	C7451	C	0.602074	0.670218	0.327430
	C7452	C	0.518587	0.739247	0.499314
	C7453	C	0.571172	0.606931	0.001221
	C7454	C	0.538800	0.669316	0.500083
	C7455	C	0.601264	0.617541	0.000141
	C7456	C	0.535180	0.605383	0.251746
	C7457	C	0.597646	0.667889	0.250418
	C7458	C	0.505491	0.591843	0.250968
	C7459	C	0.567976	0.654418	0.250058
	C7460	C	0.523701	0.721516	0.499139
	C7461	C	0.578812	0.609355	0.001132
	C7462	C	0.533647	0.686979	0.499369
	C7463	C	0.593559	0.616094	0.000468
	C7464	C	0.527573	0.602792	0.251579
	C7465	C	0.590055	0.665233	0.249948
	C7466	C	0.512832	0.597073	0.251349
	C7467	C	0.575298	0.659479	0.249613
	C7468	C	0.526137	0.712373	0.449727
	C7469	C	0.582489	0.612144	0.418110
	C7470	C	0.531241	0.696154	-0.010035
	C7471	C	0.589799	0.614131	0.083607
	C7472	C	0.530973	0.695578	0.449616
	C7473	C	0.589626	0.615284	0.417821
	C7474	C	0.526370	0.712922	-0.010148
	C7475	C	0.582662	0.610903	0.083921
	C7476	C	0.523810	0.600784	0.333049
	C7477	C	0.586175	0.664775	0.331360
	C7478	C	0.516554	0.599681	0.170015
	C7479	C	0.579130	0.660561	0.168167
	C7480	C	0.516651	0.598023	0.332995
	C7481	C	0.578995	0.661975	0.331182
	C7482	C	0.523707	0.602534	0.170131
	C7483	C	0.586302	0.663384	0.168365
	N7484	N	0.510981	0.764977	0.450993
	N7485	N	0.559635	0.609595	0.452422
	N7486	N	0.546359	0.643446	0.048964
	N7487	N	0.612737	0.612770	0.048805
	N7488	N	0.546458	0.643637	0.452908
	N7489	N	0.612697	0.612636	0.450873
	N7490	N	0.510879	0.764933	0.046156
	N7491	N	0.559663	0.609547	0.050481
	N7492	N	0.546160	0.611030	0.203050
	N7493	N	0.608627	0.673691	0.202053
	N7494	N	0.495576	0.578823	0.298090
	N7495	N	0.558096	0.641380	0.299049
	N7496	N	0.495652	0.578776	0.201638
	N7497	N	0.558037	0.641423	0.202660
	N7498	N	0.546152	0.611170	0.299806
	N7499	N	0.608613	0.673771	0.298746
	H7500	H	0.516287	0.746638	0.847686
	H7501	H	0.567792	0.606860	0.849038
	H7502	H	0.541016	0.661762	0.650729
	H7503	H	0.604674	0.617574	0.651646
	H7504	H	0.541147	0.661586	0.849524
	H7505	H	0.604590	0.616836	0.848206
	H7506	H	0.516109	0.746607	0.649759
	H7507	H	0.567831	0.607554	0.652994
	H7508	H	0.538311	0.607337	0.600926
	H7509	H	0.600906	0.669965	0.598992
	H7510	H	0.502405	0.588256	0.902460
	H7511	H	0.565193	0.650558	0.902938
	H7512	H	0.502629	0.588249	0.598863
	H7513	H	0.564846	0.651667	0.599280
	H7514	H	0.538559	0.606328	0.902765
	H7515	H	0.600940	0.669127	0.900352
	H7516	H	0.523963	0.718236	1.016948
	H7517	H	0.579782	0.611256	0.852364
	H7518	H	0.533061	0.689959	0.587810
	H7519	H	0.592533	0.614633	0.649029
	H7520	H	0.532562	0.688644	1.017390
	H7521	H	0.592323	0.616565	0.851677
	H7522	H	0.524543	0.719658	0.587054
	H7523	H	0.580005	0.609196	0.649638
	H7524	H	0.526450	0.603694	0.606157
	H7525	H	0.589155	0.663513	0.603277
	H7526	H	0.514020	0.596496	0.898457
	H7527	H	0.576351	0.661554	0.895816
	H7528	H	0.513850	0.598652	0.605847
	H7529	H	0.576535	0.658595	0.603343
	H7530	H	0.526612	0.601471	0.898015
	H7531	H	0.588941	0.666660	0.895204
	Co7532	Co	0.615006	0.687423	0.624950
	Co7533	Co	0.552473	0.624775	0.626256
	Co7534	Co	0.490014	0.561736	0.874619
	Co7535	Co	0.552538	0.624541	0.876603
	C7536	C	0.515432	0.749572	0.921553
	C7537	C	0.566563	0.607522	0.923910
	C7538	C	0.541846	0.658951	0.577405
	C7539	C	0.605871	0.616298	0.577128
	C7540	C	0.541899	0.658693	0.923571
	C7541	C	0.605865	0.615828	0.922810
	C7542	C	0.515396	0.749621	0.575948
	C7543	C	0.566540	0.607925	0.578909
	C7544	C	0.539589	0.607801	0.674509
	C7545	C	0.602119	0.670458	0.672709
	C7546	C	0.501421	0.586712	0.827993
	C7547	C	0.564063	0.649074	0.828707
	C7548	C	0.501543	0.586591	0.673241
	C7549	C	0.563890	0.649602	0.673675
	C7550	C	0.539708	0.607211	0.828796
	C7551	C	0.602142	0.670040	0.826836
	C7552	C	0.518493	0.739132	0.998996
	C7553	C	0.571128	0.607236	0.501102
	C7554	C	0.538766	0.669173	1.000526
	C7555	C	0.601230	0.617634	0.499893
	C7556	C	0.535206	0.605268	0.751804
	C7557	C	0.597710	0.667910	0.749603
	C7558	C	0.505533	0.591741	0.751152
	C7559	C	0.568053	0.654316	0.750775
	C7560	C	0.523617	0.721422	0.999218
	C7561	C	0.578777	0.609610	0.500947
	C7562	C	0.533629	0.686876	1.000079
	C7563	C	0.593518	0.616227	0.500574
	C7564	C	0.527622	0.602567	0.752099
	C7565	C	0.590132	0.665197	0.749403
	C7566	C	0.512863	0.596893	0.752034
	C7567	C	0.575392	0.659389	0.749923
	C7568	C	0.526004	0.712145	1.009144
	C7569	C	0.582550	0.611788	0.918250
	C7570	C	0.531165	0.696169	0.548759
	C7571	C	0.589779	0.613945	0.583332
	C7572	C	0.530856	0.695350	1.009595
	C7573	C	0.589691	0.614970	0.917904
	C7574	C	0.526323	0.712950	0.548380
	C7575	C	0.582639	0.610823	0.583546
	C7576	C	0.523764	0.602029	0.670367
	C7577	C	0.586362	0.663208	0.667670
	C7578	C	0.516686	0.597994	0.833718
	C7579	C	0.579101	0.661920	0.831266
	C7580	C	0.516587	0.599287	0.670397
	C7581	C	0.579192	0.660370	0.667916
	C7582	C	0.523865	0.600774	0.833582
	C7583	C	0.586274	0.664766	0.831106
	N7584	N	0.510907	0.764920	0.950432
	N7585	N	0.559670	0.609515	0.952308
	N7586	N	0.546405	0.643651	0.548767
	N7587	N	0.612735	0.612940	0.548138
	N7588	N	0.546413	0.643450	0.953110
	N7589	N	0.612720	0.612591	0.951325
	N7590	N	0.510905	0.764896	0.546272
	N7591	N	0.559651	0.609776	0.550466
	N7592	N	0.546147	0.611255	0.702960
	N7593	N	0.608657	0.673990	0.701710
	N7594	N	0.495629	0.578561	0.798071
	N7595	N	0.558173	0.641274	0.799744
	N7596	N	0.495690	0.578577	0.701481
	N7597	N	0.558062	0.641563	0.703460
	N7598	N	0.546224	0.610920	0.799584
	N7599	N	0.608678	0.673796	0.798308
	H7600	H	0.515219	0.854830	0.347365
	H7601	H	0.578586	0.809330	0.349250
	H7602	H	0.551964	0.863878	0.152380
	H7603	H	0.603444	0.723996	0.150879
	H7604	H	0.551985	0.864342	0.348197
	H7605	H	0.603579	0.724325	0.348674
	H7606	H	0.515161	0.854840	0.150607
	H7607	H	0.578713	0.809230	0.151280
	H7608	H	0.555036	0.819872	0.098947
	H7609	H	0.617365	0.882927	0.098891
	H7610	H	0.518924	0.801857	0.399552
	H7611	H	0.581362	0.864566	0.401123
	H7612	H	0.519105	0.801357	0.097933
	H7613	H	0.581524	0.864068	0.100367
	H7614	H	0.554763	0.820125	0.401248
	H7615	H	0.617437	0.882361	0.401812
	H7616	H	0.527496	0.854403	0.350946
	H7617	H	0.586954	0.781982	0.375516
	H7618	H	0.539830	0.862333	0.148222
	H7619	H	0.595700	0.752550	-0.075444
	H7620	H	0.540037	0.859599	0.351195
	H7621	H	0.595522	0.752476	0.375005
	H7622	H	0.527286	0.857312	0.148039
	H7623	H	0.587143	0.782163	-0.075648
	H7624	H	0.543424	0.812187	0.104108
	H7625	H	0.605964	0.873415	0.395613
	H7626	H	0.530963	0.804485	0.393790
	H7627	H	0.593274	0.869228	0.105335
	H7628	H	0.530824	0.807091	0.103992
	H7629	H	0.593358	0.868405	0.395920
	H7630	H	0.543550	0.809792	0.394267
	H7631	H	0.605867	0.874340	0.105133
	Co7632	Co	0.629863	0.909050	0.125249
	Co7633	Co	0.567348	0.846552	0.125411
	Co7634	Co	0.504899	0.783954	0.373684
	Co7635	Co	0.567318	0.846566	0.375801
	C7636	C	0.513938	0.855815	0.421582
	C7637	C	0.577893	0.812246	0.422990
	C7638	C	0.553300	0.863356	0.077885
	C7639	C	0.604299	0.721334	0.077161
	C7640	C	0.553290	0.863601	0.422519
	C7641	C	0.604381	0.721488	0.422546
	C7642	C	0.513920	0.855865	0.076183
	C7643	C	0.577930	0.812210	0.077339
	C7644	C	0.555973	0.821585	0.172824
	C7645	C	0.618385	0.884399	0.172895
	C7646	C	0.517762	0.801051	0.325621
	C7647	C	0.580185	0.863821	0.327520
	C7648	C	0.517808	0.800831	0.171229
	C7649	C	0.580246	0.863552	0.173699
	C7650	C	0.555878	0.821826	0.327260
	C7651	C	0.618433	0.884166	0.327531
	C7652	C	0.518561	0.854144	0.499351
	C7653	C	0.581066	0.801905	0.000101
	C7654	C	0.548636	0.864185	0.499868
	C7655	C	0.601270	0.731931	-0.000122
	C7656	C	0.551889	0.816728	0.249862
	C7657	C	0.614350	0.879356	0.250282
	C7658	C	0.522212	0.803138	0.248550
	C7659	C	0.584614	0.866042	0.250578
	C7660	C	0.526254	0.855300	0.499475
	C7661	C	0.586205	0.784223	-0.000111
	C7662	C	0.540994	0.861835	0.499423
	C7663	C	0.596163	0.749638	-0.000303
	C7664	C	0.544537	0.811626	0.249227
	C7665	C	0.606968	0.874381	0.250416
	C7666	C	0.529808	0.805794	0.248852
	C7667	C	0.592222	0.868720	0.250766
	C7668	C	0.530124	0.856133	0.416800
	C7669	C	0.588795	0.775444	0.430008
	C7670	C	0.537173	0.860849	0.082460
	C7671	C	0.593736	0.758733	-0.042510
	C7672	C	0.537284	0.859210	0.416820
	C7673	C	0.593631	0.758647	0.429927
	C7674	C	0.530024	0.857704	0.082286
	C7675	C	0.588899	0.775555	-0.042360
	C7676	C	0.540724	0.810551	0.168031
	C7677	C	0.603222	0.872442	0.331662
	C7678	C	0.533641	0.806350	0.330002
	C7679	C	0.596012	0.870211	0.169389
	C7680	C	0.533572	0.807644	0.167725
	C7681	C	0.596057	0.869686	0.331868
	C7682	C	0.540809	0.809163	0.330237
	C7683	C	0.603161	0.872986	0.169268
	N7684	N	0.507098	0.859473	0.449772
	N7685	N	0.573347	0.827440	0.452517
	N7686	N	0.560190	0.861583	0.049704
	N7687	N	0.608841	0.706094	0.047806
	N7688	N	0.560175	0.861589	0.451731
	N7689	N	0.608880	0.706158	0.451907
	N7690	N	0.507094	0.859568	0.046799
	N7691	N	0.573401	0.827504	0.048183
	N7692	N	0.561780	0.829734	0.202396
	N7693	N	0.624267	0.892186	0.202114
	N7694	N	0.511227	0.797561	0.296829
	N7695	N	0.573650	0.860119	0.298871
	N7696	N	0.511240	0.797389	0.200025
	N7697	N	0.573673	0.859976	0.202386
	N7698	N	0.561747	0.829830	0.298480
	N7699	N	0.624300	0.892072	0.298506
	H7700	H	0.515275	0.855159	0.846954
	H7701	H	0.578883	0.809889	0.849039
	H7702	H	0.551896	0.864068	0.652176
	H7703	H	0.603496	0.724389	0.650631
	H7704	H	0.552028	0.864544	0.848219
	H7705	H	0.603717	0.724522	0.848720
	H7706	H	0.515145	0.855024	0.650778
	H7707	H	0.578841	0.809676	0.650544
	H7708	H	0.555061	0.819579	0.598610
	H7709	H	0.617552	0.882019	0.598599
	H7710	H	0.518904	0.801834	0.899939
	H7711	H	0.581471	0.864464	0.899758
	H7712	H	0.518990	0.801919	0.598744
	H7713	H	0.581400	0.864223	0.598959
	H7714	H	0.554723	0.820656	0.901741
	H7715	H	0.617297	0.882796	0.901808
	H7716	H	0.527565	0.854242	0.850996
	H7717	H	0.586685	0.781428	1.075344
	H7718	H	0.539805	0.862219	0.647739
	H7719	H	0.595281	0.751730	0.623800
	H7720	H	0.540114	0.859184	0.851416
	H7721	H	0.595192	0.751640	1.074826
	H7722	H	0.527277	0.856939	0.647637
	H7723	H	0.586786	0.781452	0.623805
	H7724	H	0.543353	0.812477	0.604265
	H7725	H	0.605938	0.873939	0.604958
	H7726	H	0.530988	0.804618	0.895235
	H7727	H	0.593447	0.867877	0.894182
	H7728	H	0.530788	0.807229	0.604021
	H7729	H	0.593341	0.868879	0.604394
	H7730	H	0.543560	0.809739	0.895991
	H7731	H	0.606028	0.873005	0.895165
	Co7732	Co	0.629865	0.908896	0.625079
	Co7733	Co	0.567336	0.846518	0.625585
	Co7734	Co	0.504851	0.784028	0.873602
	Co7735	Co	0.567329	0.846927	0.875816
	C7736	C	0.513990	0.856017	0.921255
	C7737	C	0.578013	0.812532	0.922977
	C7738	C	0.553257	0.863461	0.577825
	C7739	C	0.604341	0.721506	0.576700
	C7740	C	0.553329	0.863747	0.922878
	C7741	C	0.604442	0.721592	0.922700
	C7742	C	0.513898	0.856047	0.576527
	C7743	C	0.577973	0.812328	0.577135
	C7744	C	0.556001	0.821657	0.673078
	C7745	C	0.618520	0.883953	0.672862
	C7746	C	0.517758	0.800998	0.826297
	C7747	C	0.580257	0.863703	0.826398
	C7748	C	0.517771	0.801041	0.672362
	C7749	C	0.580232	0.863628	0.672368
	C7750	C	0.555844	0.822242	0.827910
	C7751	C	0.618397	0.884292	0.827709
	C7752	C	0.518583	0.854121	0.999223
	C7753	C	0.581054	0.801914	0.499821
	C7754	C	0.548680	0.864219	1.000245
	C7755	C	0.601291	0.731889	0.499459
	C7756	C	0.551851	0.816999	0.750264
	C7757	C	0.614412	0.879165	0.750076
	C7758	C	0.522212	0.803181	0.749532
	C7759	C	0.584682	0.865782	0.749194
	C7760	C	0.526283	0.855394	0.999604
	C7761	C	0.586179	0.784190	0.499565
	C7762	C	0.541037	0.861844	0.999857
	C7763	C	0.596149	0.749543	0.499469
	C7764	C	0.544515	0.811907	0.750072
	C7765	C	0.607058	0.874087	0.750013
	C7766	C	0.529785	0.805910	0.749777
	C7767	C	0.592284	0.868379	0.749374
	C7768	C	0.530184	0.855947	0.916946
	C7769	C	0.588634	0.775091	1.042116
	C7770	C	0.537165	0.860648	0.582031
	C7771	C	0.593505	0.758321	0.569130
	C7772	C	0.537337	0.859001	0.917200
	C7773	C	0.593475	0.758284	1.041935
	C7774	C	0.530015	0.857500	0.582121
	C7775	C	0.588667	0.775116	0.569115
	C7776	C	0.540698	0.810786	0.668733
	C7777	C	0.603243	0.872645	0.669018
	C7778	C	0.533652	0.806440	0.831231
	C7779	C	0.596143	0.869243	0.830328
	C7780	C	0.533533	0.807958	0.668601
	C7781	C	0.596072	0.869860	0.668633
	C7782	C	0.540819	0.809330	0.831395
	C7783	C	0.603314	0.872017	0.830953
	N7784	N	0.507126	0.859614	0.949310
	N7785	N	0.573438	0.827720	0.952545
	N7786	N	0.560147	0.861533	0.549583
	N7787	N	0.608861	0.706167	0.547840
	N7788	N	0.560215	0.861819	0.951868
	N7789	N	0.608924	0.706261	0.952069
	N7790	N	0.507079	0.859614	0.547293
	N7791	N	0.573398	0.827527	0.547903
	N7792	N	0.561823	0.829685	0.702759
	N7793	N	0.624338	0.892073	0.702466
	N7794	N	0.511227	0.797475	0.797243
	N7795	N	0.573689	0.860239	0.798140
	N7796	N	0.511229	0.797428	0.700654
	N7797	N	0.573681	0.860150	0.701555
	N7798	N	0.561740	0.830002	0.799094
	N7799	N	0.624267	0.892234	0.798949
	H7800	H	0.510547	0.948727	0.346854
	H7801	H	0.577803	0.917849	0.348881
	H7802	H	0.547189	0.957291	0.152940
	H7803	H	0.614489	0.926751	0.152578
	H7804	H	0.547351	0.957897	0.348578
	H7805	H	0.614542	0.926752	0.348552
	H7806	H	0.510489	0.948223	0.151179
	H7807	H	0.577676	0.917164	0.152917
	H7808	H	0.549626	0.913190	0.099264
	H7809	H	0.611874	0.976349	0.099360
	H7810	H	0.512931	0.898812	0.400484
	H7811	H	0.575362	0.961935	0.402337
	H7812	H	0.513020	0.898893	0.096247
	H7813	H	0.575425	0.961058	0.098648
	H7814	H	0.549449	0.913757	0.403186
	H7815	H	0.611957	0.975953	0.402761
	H7816	H	0.522665	0.950790	0.350762
	H7817	H	0.589958	0.918001	0.352548
	H7818	H	0.535268	0.954985	-0.147930
	H7819	H	0.602430	0.923884	0.149064
	H7820	H	0.535221	0.955829	0.351237
	H7821	H	0.602504	0.923059	0.352235
	H7822	H	0.522719	0.949800	-0.148671
	H7823	H	0.589937	0.918579	0.149262
	H7824	H	0.537564	0.909196	0.101501
	H7825	H	0.600045	0.970602	0.101803
	H7826	H	0.524937	0.903151	0.398318
	H7827	H	0.587343	0.966929	0.399906
	H7828	H	0.524877	0.905640	0.100737
	H7829	H	0.587376	0.966938	0.101465
	H7830	H	0.537586	0.906870	0.399380
	H7831	H	0.600047	0.970402	0.399665
	Co7832	Co	0.624980	1.000001	0.125588
	Co7833	Co	0.562450	0.937332	0.125354
	Co7834	Co	0.499934	0.874869	0.373125
	Co7835	Co	0.562490	0.937502	0.376353
	C7836	C	0.509201	0.949332	0.421149
	C7837	C	0.576501	0.918556	0.423181
	C7838	C	0.548501	0.956350	0.078457
	C7839	C	0.615823	0.925983	0.078461
	C7840	C	0.548602	0.956757	0.422765
	C7841	C	0.615835	0.926038	0.422918
	C7842	C	0.509213	0.948987	0.076748
	C7843	C	0.576468	0.918379	0.078328
	C7844	C	0.550644	0.914810	0.173851
	C7845	C	0.613058	0.977622	0.173533
	C7846	C	0.511880	0.897235	0.326013
	C7847	C	0.574308	0.960110	0.327798
	C7848	C	0.511913	0.897308	0.171010
	C7849	C	0.574347	0.959779	0.173183
	C7850	C	0.550589	0.915011	0.328490
	C7851	C	0.613074	0.977489	0.328524
	C7852	C	0.513829	0.948538	0.498959
	C7853	C	0.581114	0.916637	0.000743
	C7854	C	0.543926	0.958497	0.499983
	C7855	C	0.611214	0.926682	0.000731
	C7856	C	0.546327	0.911273	0.250957
	C7857	C	0.608771	0.973986	0.250880
	C7858	C	0.516187	0.900944	0.248832
	C7859	C	0.578614	0.963618	0.250427
	C7860	C	0.521464	0.950911	0.499293
	C7861	C	0.588819	0.917761	0.000771
	C7862	C	0.536226	0.957227	0.499637
	C7863	C	0.603572	0.924292	0.000588
	C7864	C	0.538747	0.908154	0.250423
	C7865	C	0.601183	0.970718	0.250761
	C7866	C	0.523761	0.904181	0.249476
	C7867	C	0.586191	0.966749	0.250565
	C7868	C	0.525304	0.952178	0.416788
	C7869	C	0.592633	0.919284	0.418297
	C7870	C	0.532481	0.954692	-0.082530
	C7871	C	0.599776	0.922578	0.083332
	C7872	C	0.532477	0.955072	0.416990
	C7873	C	0.599780	0.922362	0.418085
	C7874	C	0.525332	0.951626	-0.082869
	C7875	C	0.592620	0.919518	0.083239
	C7876	C	0.534855	0.907866	0.167295
	C7877	C	0.597321	0.969736	0.167919
	C7878	C	0.527627	0.904535	0.332525
	C7879	C	0.590066	0.967629	0.333608
	C7880	C	0.527602	0.905928	0.166917
	C7881	C	0.590077	0.967775	0.167865
	C7882	C	0.534877	0.906540	0.333066
	C7883	C	0.597314	0.969614	0.333690
	N7884	N	0.502322	0.951085	0.449485
	N7885	N	0.569642	0.922060	0.451801
	N7886	N	0.555352	0.952904	0.049939
	N7887	N	0.622703	0.924102	0.049981
	N7888	N	0.555425	0.953141	0.452118
	N7889	N	0.622723	0.923947	0.451739
	N7890	N	0.502312	0.951084	0.048064
	N7891	N	0.569622	0.921992	0.049543
	N7892	N	0.556857	0.920924	0.202799
	N7893	N	0.619297	0.983654	0.202593
	N7894	N	0.505667	0.891158	0.296564
	N7895	N	0.568084	0.953930	0.299018
	N7896	N	0.505655	0.891317	0.199564
	N7897	N	0.568130	0.953708	0.201986
	N7898	N	0.556811	0.921116	0.299993
	N7899	N	0.619314	0.983535	0.299453
	H7900	H	0.510485	0.948537	0.847220
	H7901	H	0.577709	0.917760	0.848678
	H7902	H	0.547228	0.957718	0.651966
	H7903	H	0.614570	0.926625	0.652613
	H7904	H	0.547334	0.958066	0.848388
	H7905	H	0.614495	0.926914	0.849079
	H7906	H	0.510473	0.948015	0.651010
	H7907	H	0.577704	0.917155	0.652550
	H7908	H	0.549637	0.913308	0.598639
	H7909	H	0.612089	0.976271	0.598637
	H7910	H	0.512961	0.898832	0.899959
	H7911	H	0.575473	0.961602	0.902328
	H7912	H	0.513064	0.898841	0.596635
	H7913	H	0.575579	0.961153	0.598850
	H7914	H	0.549445	0.914043	0.902157
	H7915	H	0.612019	0.976209	0.902342
	H7916	H	0.522394	0.953219	1.147636
	H7917	H	0.589995	0.917703	0.852280
	H7918	H	0.535003	0.957950	0.648274
	H7919	H	0.602461	0.923904	0.648887
	H7920	H	0.534877	0.958738	1.147880
	H7921	H	0.602493	0.923133	0.852077
	H7922	H	0.522463	0.952721	0.648118
	H7923	H	0.589937	0.918638	0.649006
	H7924	H	0.537572	0.909468	0.601301
	H7925	H	0.600076	0.970954	0.601476
	H7926	H	0.525034	0.902918	0.898002
	H7927	H	0.587482	0.966501	0.898822
	H7928	H	0.524944	0.905728	0.600388
	H7929	H	0.587405	0.967387	0.601548
	H7930	H	0.537690	0.906824	0.898572
	H7931	H	0.600144	0.970145	0.899149
	Co7932	Co	0.624998	1.000273	0.625699
	Co7933	Co	0.562520	0.937444	0.625040
	Co7934	Co	0.500012	0.875079	0.872751
	Co7935	Co	0.562515	0.937763	0.876479
	C7936	C	0.509206	0.949194	0.921743
	C7937	C	0.576479	0.918557	0.923185
	C7938	C	0.548553	0.956628	0.578042
	C7939	C	0.615852	0.925911	0.578008
	C7940	C	0.548582	0.956845	0.923299
	C7941	C	0.615827	0.926112	0.923335
	C7942	C	0.509171	0.948996	0.576500
	C7943	C	0.576472	0.918311	0.578176
	C7944	C	0.550679	0.914968	0.673151
	C7945	C	0.613176	0.977669	0.673169
	C7946	C	0.511884	0.897528	0.825582
	C7947	C	0.574408	0.960111	0.827943
	C7948	C	0.511934	0.897625	0.670603
	C7949	C	0.574463	0.959696	0.673140
	C7950	C	0.550604	0.915320	0.828101
	C7951	C	0.613135	0.977737	0.828163
	C7952	C	0.513825	0.948398	0.999167
	C7953	C	0.581101	0.916740	0.500878
	C7954	C	0.543912	0.958421	1.000498
	C7955	C	0.611213	0.926744	0.500549
	C7956	C	0.546351	0.911504	0.750593
	C7957	C	0.608846	0.974057	0.750420
	C7958	C	0.516217	0.901148	0.748515
	C7959	C	0.578719	0.963662	0.750455
	C7960	C	0.521452	0.950748	0.999285
	C7961	C	0.588803	0.918021	0.500939
	C7962	C	0.536192	0.957271	0.999871
	C7963	C	0.603563	0.924477	0.500484
	C7964	C	0.538780	0.908321	0.750090
	C7965	C	0.601277	0.970922	0.750267
	C7966	C	0.523790	0.904290	0.749219
	C7967	C	0.586284	0.966890	0.750302
	C7968	C	0.525149	0.953505	1.081899
	C7969	C	0.592655	0.919072	0.918222
	C7970	C	0.532361	0.956330	0.582368
	C7971	C	0.599774	0.922736	0.583083
	C7972	C	0.532282	0.956706	1.082142
	C7973	C	0.599810	0.922165	0.917933
	C7974	C	0.525189	0.953353	0.582156
	C7975	C	0.592633	0.919640	0.583292
	C7976	C	0.534891	0.908032	0.667062
	C7977	C	0.597396	0.970075	0.667688
	C7978	C	0.527694	0.904450	0.832063
	C7979	C	0.590191	0.967625	0.833017
	C7980	C	0.527636	0.906083	0.666710
	C7981	C	0.590138	0.968097	0.667559
	C7982	C	0.534944	0.906485	0.832473
	C7983	C	0.597443	0.969614	0.832970
	N7984	N	0.502321	0.951147	0.950179
	N7985	N	0.569633	0.922159	0.952150
	N7986	N	0.555408	0.953019	0.549411
	N7987	N	0.622731	0.923881	0.549570
	N7988	N	0.555392	0.953163	0.952332
	N7989	N	0.622706	0.924174	0.952027
	N7990	N	0.502291	0.950958	0.547455
	N7991	N	0.569634	0.921959	0.549127
	N7992	N	0.556884	0.921133	0.702312
	N7993	N	0.619366	0.983836	0.702467
	N7994	N	0.505658	0.891557	0.796308
	N7995	N	0.568205	0.953897	0.798942
	N7996	N	0.505697	0.891557	0.699124
	N7997	N	0.568232	0.953683	0.701874
	N7998	N	0.556838	0.921376	0.799289
	N7999	N	0.619359	0.983861	0.799529
	H8000	H	0.635476	0.072977	0.348753
	H8001	H	0.702818	0.042133	0.346945
	H8002	H	0.672256	0.083077	0.150666
	H8003	H	0.739507	0.051321	0.152698
	H8004	H	0.672220	0.081868	0.347041
	H8005	H	0.739578	0.051692	0.347897
	H8006	H	0.635563	0.073888	0.152209
	H8007	H	0.702637	0.042313	0.150950
	H8008	H	0.674301	0.039198	0.096456
	H8009	H	0.737100	0.100918	0.098438
	H8010	H	0.638103	0.023089	0.403001
	H8011	H	0.700376	0.086200	0.400206
	H8012	H	0.637787	0.024414	0.099647
	H8013	H	0.700479	0.086077	0.097658
	H8014	H	0.674660	0.037702	0.399826
	H8015	H	0.736943	0.101503	0.401466
	H8016	H	0.647359	0.078885	0.352261
	H8017	H	0.715016	0.042493	0.351028
	H8018	H	0.660150	0.080408	0.148261
	H8019	H	0.727356	0.048842	0.149471
	H8020	H	0.659928	0.084106	0.351919
	H8021	H	0.727563	0.047664	0.351069
	H8022	H	0.647599	0.075192	0.148079
	H8023	H	0.714807	0.043659	0.148973
	H8024	H	0.662614	0.031461	0.100137
	H8025	H	0.725000	0.096619	0.100775
	H8026	H	0.649746	0.031278	0.398953
	H8027	H	0.712468	0.090817	0.398391
	H8028	H	0.649913	0.027842	0.101274
	H8029	H	0.712315	0.092844	0.100357
	H8030	H	0.662438	0.034854	0.398190
	H8031	H	0.725122	0.094513	0.398669
	Co8032	Co	0.749971	0.125033	0.125435
	Co8033	Co	0.687423	0.062545	0.122539
	Co8034	Co	0.624951	-0.000200	0.376935
	Co8035	Co	0.687527	0.062078	0.373478
	C8036	C	0.634206	0.073932	0.423281
	C8037	C	0.701527	0.043165	0.421315
	C8038	C	0.673500	0.081770	0.076031
	C8039	C	0.740811	0.050584	0.077994
	C8040	C	0.673575	0.081217	0.421193
	C8041	C	0.740881	0.050966	0.422901
	C8042	C	0.634205	0.074297	0.077877
	C8043	C	0.701350	0.043406	0.076534
	C8044	C	0.675472	0.040393	0.171157
	C8045	C	0.738151	0.102448	0.173099
	C8046	C	0.636918	0.022084	0.328459
	C8047	C	0.699349	0.084754	0.326062
	C8048	C	0.636782	0.022676	0.174090
	C8049	C	0.699396	0.084706	0.171405
	C8050	C	0.675645	0.039642	0.325716
	C8051	C	0.738061	0.102790	0.327368
	C8052	C	0.638844	0.073683	0.500719
	C8053	C	0.706044	0.041663	-0.000438
	C8054	C	0.668983	0.083487	0.499044
	C8055	C	0.736137	0.051444	0.000661
	C8056	C	0.671257	0.036453	0.248582
	C8057	C	0.733805	0.098965	0.249923
	C8058	C	0.641125	0.026021	0.251029
	C8059	C	0.703672	0.088377	0.249006
	C8060	C	0.646460	0.076128	0.500355
	C8061	C	0.713741	0.042816	-0.000018
	C8062	C	0.661244	0.082418	0.499771
	C8063	C	0.728509	0.049140	0.000582
	C8064	C	0.663663	0.033396	0.249163
	C8065	C	0.726222	0.095711	0.249776
	C8066	C	0.648700	0.029315	0.250153
	C8067	C	0.711239	0.091636	0.249344
	C8068	C	0.650143	0.079054	0.417858
	C8069	C	0.717706	0.043854	0.416833
	C8070	C	0.657407	0.079864	0.082197
	C8071	C	0.724690	0.047598	0.083329
	C8072	C	0.657310	0.082017	0.417570
	C8073	C	0.724852	0.046937	0.417069
	C8074	C	0.650246	0.076797	0.082256
	C8075	C	0.717512	0.044545	0.083058
	C8076	C	0.659854	0.031494	0.166579
	C8077	C	0.722318	0.095265	0.166745
	C8078	C	0.652522	0.031382	0.332825
	C8079	C	0.715144	0.092162	0.332290
	C8080	C	0.652616	0.029423	0.166925
	C8081	C	0.715071	0.093247	0.166468
	C8082	C	0.659759	0.033399	0.332217
	C8083	C	0.722394	0.094140	0.332488
	N8084	N	0.627325	0.075874	0.452155
	N8085	N	0.694659	0.046805	0.450144
	N8086	N	0.680331	0.078099	0.047282
	N8087	N	0.747706	0.048706	0.049215
	N8088	N	0.680423	0.077762	0.449356
	N8089	N	0.747755	0.049004	0.451324
	N8090	N	0.627310	0.076252	0.049359
	N8091	N	0.694543	0.047005	0.047326
	N8092	N	0.681752	0.046227	0.199604
	N8093	N	0.744334	0.108694	0.202257
	N8094	N	0.630675	0.016012	0.299982
	N8095	N	0.693146	0.078598	0.297057
	N8096	N	0.630570	0.016442	0.203012
	N8097	N	0.693150	0.078663	0.199853
	N8098	N	0.681857	0.045771	0.296508
	N8099	N	0.744315	0.108740	0.299374
	H8100	H	0.635435	0.072944	0.847980
	H8101	H	0.702742	0.042682	0.847770
	H8102	H	0.672440	0.083620	0.650166
	H8103	H	0.739568	0.051414	0.651919
	H8104	H	0.672214	0.082218	0.847008
	H8105	H	0.739473	0.051650	0.848807
	H8106	H	0.635531	0.073973	0.653205
	H8107	H	0.702759	0.042656	0.650886
	H8108	H	0.674431	0.039200	0.597427
	H8109	H	0.737045	0.101127	0.598884
	H8110	H	0.638153	0.023521	0.902550
	H8111	H	0.700376	0.086691	0.902000
	H8112	H	0.637901	0.024424	0.598621
	H8113	H	0.700589	0.086334	0.597110
	H8114	H	0.674684	0.038220	0.900276
	H8115	H	0.736936	0.101317	0.902606
	H8116	H	0.647340	0.077487	0.850893
	H8117	H	0.714977	0.042537	0.851222
	H8118	H	0.660346	0.080032	0.647602
	H8119	H	0.727443	0.048903	0.648830
	H8120	H	0.659866	0.082801	0.850636
	H8121	H	0.727475	0.047689	0.851795
	H8122	H	0.647783	0.074993	0.648853
	H8123	H	0.714903	0.043673	0.647936
	H8124	H	0.662686	0.031910	0.600711
	H8125	H	0.725047	0.096304	0.601589
	H8126	H	0.649935	0.030439	0.898882
	H8127	H	0.712471	0.091238	0.899191
	H8128	H	0.650011	0.028234	0.601006
	H8129	H	0.712394	0.092638	0.601519
	H8130	H	0.662594	0.034161	0.898079
	H8131	H	0.725120	0.095037	0.899249
	Co8132	Co	0.750026	0.125009	0.625592
	Co8133	Co	0.687527	0.062672	0.622474
	Co8134	Co	0.625039	0.000153	0.876666
	Co8135	Co	0.687470	0.062701	0.873910
	C8136	C	0.634129	0.073923	0.922389
	C8137	C	0.701414	0.043565	0.921784
	C8138	C	0.673658	0.081981	0.576194
	C8139	C	0.740857	0.050788	0.577601
	C8140	C	0.673470	0.081435	0.921490
	C8141	C	0.740776	0.050907	0.922846
	C8142	C	0.634236	0.074514	0.578483
	C8143	C	0.701501	0.043417	0.576542
	C8144	C	0.675589	0.040403	0.671023
	C8145	C	0.738151	0.102607	0.673047
	C8146	C	0.637014	0.022326	0.828127
	C8147	C	0.699335	0.085183	0.826886
	C8148	C	0.636856	0.022812	0.673274
	C8149	C	0.699428	0.084960	0.671838
	C8150	C	0.675720	0.039867	0.825779
	C8151	C	0.738129	0.102626	0.827990
	C8152	C	0.638781	0.073429	0.999741
	C8153	C	0.706133	0.041561	0.499254
	C8154	C	0.668837	0.083382	0.998882
	C8155	C	0.736256	0.051455	0.500114
	C8156	C	0.671370	0.036451	0.748740
	C8157	C	0.733826	0.099015	0.750411
	C8158	C	0.641234	0.026175	0.750410
	C8159	C	0.703698	0.088629	0.749639
	C8160	C	0.646407	0.075675	0.999369
	C8161	C	0.713871	0.042715	0.499520
	C8162	C	0.661146	0.082099	0.999372
	C8163	C	0.728612	0.049146	0.499849
	C8164	C	0.663789	0.033198	0.749277
	C8165	C	0.726254	0.095794	0.750301
	C8166	C	0.648803	0.029303	0.749831
	C8167	C	0.711263	0.091767	0.750158
	C8168	C	0.650100	0.078038	0.916752
	C8169	C	0.717592	0.043996	0.917302
	C8170	C	0.657537	0.079867	0.582418
	C8171	C	0.724790	0.047670	0.582543
	C8172	C	0.657253	0.081097	0.916800
	C8173	C	0.724761	0.046965	0.917580
	C8174	C	0.650372	0.076882	0.582720
	C8175	C	0.717645	0.044582	0.582386
	C8176	C	0.659946	0.031527	0.666554
	C8177	C	0.722362	0.095182	0.667589
	C8178	C	0.652636	0.030885	0.832551
	C8179	C	0.715158	0.092358	0.833064
	C8180	C	0.652704	0.029595	0.666836
	C8181	C	0.715113	0.093185	0.667492
	C8182	C	0.659890	0.032792	0.832225
	C8183	C	0.722416	0.094381	0.832907
	N8184	N	0.627267	0.075982	0.951755
	N8185	N	0.694588	0.047133	0.949874
	N8186	N	0.680481	0.078286	0.546767
	N8187	N	0.747747	0.048938	0.549540
	N8188	N	0.680302	0.077974	0.949800
	N8189	N	0.747677	0.048867	0.951367
	N8190	N	0.627333	0.076161	0.550269
	N8191	N	0.694640	0.046983	0.547088
	N8192	N	0.681826	0.046419	0.699433
	N8193	N	0.744361	0.108688	0.702329
	N8194	N	0.630751	0.016386	0.799665
	N8195	N	0.693125	0.079071	0.797400
	N8196	N	0.630646	0.016679	0.702576
	N8197	N	0.693170	0.079009	0.700178
	N8198	N	0.681905	0.046159	0.796642
	N8199	N	0.744347	0.108733	0.799276
	H8200	H	0.646538	0.276227	0.348280
	H8201	H	0.697976	0.136060	0.347015
	H8202	H	0.671177	0.190573	0.150598
	H8203	H	0.734756	0.144825	0.152501
	H8204	H	0.671308	0.190727	0.348529
	H8205	H	0.734854	0.145497	0.348836
	H8206	H	0.646346	0.275767	0.151648
	H8207	H	0.697960	0.135784	0.151557
	H8208	H	0.668458	0.136760	0.097947
	H8209	H	0.731155	0.197959	0.099167
	H8210	H	0.632798	0.117102	0.401573
	H8211	H	0.695178	0.179800	0.400809
	H8212	H	0.632471	0.117965	0.098475
	H8213	H	0.695070	0.180276	0.098811
	H8214	H	0.668619	0.135578	0.399721
	H8215	H	0.731021	0.198768	0.400477
	H8216	H	0.654544	0.248104	0.492199
	H8217	H	0.710132	0.138369	0.350635
	H8218	H	0.662981	0.217900	-0.013191
	H8219	H	0.722439	0.145549	0.148113
	H8220	H	0.663150	0.218560	0.491848
	H8221	H	0.722684	0.143364	0.351080
	H8222	H	0.654391	0.247472	-0.012525
	H8223	H	0.709893	0.140333	0.147856
	H8224	H	0.656815	0.129228	0.103699
	H8225	H	0.719020	0.195650	0.104618
	H8226	H	0.643804	0.129375	0.393919
	H8227	H	0.706712	0.187433	0.396069
	H8228	H	0.644233	0.123980	0.103784
	H8229	H	0.706417	0.190709	0.104654
	H8230	H	0.656394	0.134520	0.393016
	H8231	H	0.719274	0.192553	0.395821
	Co8232	Co	0.745161	0.215912	0.124787
	Co8233	Co	0.682680	0.153677	0.124031
	Co8234	Co	0.620190	0.090762	0.375732
	Co8235	Co	0.682652	0.153416	0.374786
	C8236	C	0.645676	0.278841	0.422389
	C8237	C	0.696711	0.136558	0.422057
	C8238	C	0.672032	0.187775	0.076827
	C8239	C	0.736023	0.143839	0.078088
	C8240	C	0.672090	0.187880	0.422134
	C8241	C	0.736087	0.144227	0.423280
	C8242	C	0.645560	0.278599	0.077643
	C8243	C	0.696669	0.136577	0.076913
	C8244	C	0.669693	0.136948	0.171695
	C8245	C	0.732291	0.198848	0.173039
	C8246	C	0.631645	0.115517	0.327663
	C8247	C	0.694096	0.178240	0.327106
	C8248	C	0.631496	0.115985	0.172734
	C8249	C	0.694077	0.178387	0.172788
	C8250	C	0.669744	0.136398	0.325807
	C8251	C	0.732211	0.199266	0.327038
	C8252	C	0.648686	0.268191	0.499399
	C8253	C	0.701288	0.136068	-0.000493
	C8254	C	0.668965	0.198348	0.499027
	C8255	C	0.731413	0.145825	0.000556
	C8256	C	0.665299	0.134416	0.248586
	C8257	C	0.727835	0.196817	0.249790
	C8258	C	0.635615	0.120744	0.250076
	C8259	C	0.698140	0.183300	0.250166
	C8260	C	0.653833	0.250539	0.499160
	C8261	C	0.708933	0.138465	-0.000365
	C8262	C	0.663831	0.216007	0.498751
	C8263	C	0.723691	0.144776	-0.000050
	C8264	C	0.657704	0.131801	0.248571
	C8265	C	0.720257	0.194044	0.249878
	C8266	C	0.642969	0.125902	0.249135
	C8267	C	0.705488	0.188416	0.250430
	C8268	C	0.656422	0.241689	0.495110
	C8269	C	0.712799	0.139748	0.416794
	C8270	C	0.661202	0.224562	-0.007215
	C8271	C	0.719795	0.143990	0.082457
	C8272	C	0.661278	0.224896	0.494886
	C8273	C	0.719953	0.142733	0.417030
	C8274	C	0.656332	0.241330	-0.006842
	C8275	C	0.712649	0.140991	0.082280
	C8276	C	0.653998	0.129103	0.167683
	C8277	C	0.716350	0.193742	0.168633
	C8278	C	0.646609	0.129234	0.329666
	C8279	C	0.709328	0.189318	0.331902
	C8280	C	0.646846	0.126235	0.167830
	C8281	C	0.709184	0.190960	0.168942
	C8282	C	0.653763	0.132152	0.329420
	C8283	C	0.716497	0.192085	0.331573
	N8284	N	0.641107	0.294033	0.451868
	N8285	N	0.689818	0.138516	0.450358
	N8286	N	0.676606	0.172684	0.047388
	N8287	N	0.742855	0.140408	0.049627
	N8288	N	0.676599	0.172602	0.451337
	N8289	N	0.742941	0.140611	0.452221
	N8290	N	0.641039	0.293902	0.048082
	N8291	N	0.689768	0.138524	0.048092
	N8292	N	0.676286	0.140257	0.200677
	N8293	N	0.738843	0.202513	0.202077
	N8294	N	0.625780	0.107581	0.298656
	N8295	N	0.688254	0.170260	0.297905
	N8296	N	0.625680	0.107917	0.202152
	N8297	N	0.688236	0.170431	0.201747
	N8298	N	0.676310	0.139977	0.297447
	N8299	N	0.738779	0.202764	0.298752
	H8300	H	0.646349	0.275581	0.849287
	H8301	H	0.697973	0.136171	0.847427
	H8302	H	0.671207	0.190650	0.649954
	H8303	H	0.734770	0.144627	0.652622
	H8304	H	0.671310	0.191070	0.848484
	H8305	H	0.734828	0.145212	0.848742
	H8306	H	0.646311	0.275518	0.650483
	H8307	H	0.697946	0.135955	0.651372
	H8308	H	0.668545	0.135758	0.599208
	H8309	H	0.731147	0.197870	0.600063
	H8310	H	0.632748	0.117065	0.902272
	H8311	H	0.694990	0.180238	0.901985
	H8312	H	0.632558	0.117545	0.599072
	H8313	H	0.695244	0.179775	0.598703
	H8314	H	0.668577	0.135889	0.900547
	H8315	H	0.731034	0.198519	0.900717
	H8316	H	0.654674	0.248640	1.014493
	H8317	H	0.710152	0.138167	0.850758
	H8318	H	0.663065	0.218443	0.506174
	H8319	H	0.722472	0.145137	0.648856
	H8320	H	0.663252	0.219027	1.014150
	H8321	H	0.722667	0.143280	0.851250
	H8322	H	0.654535	0.248094	0.506031
	H8323	H	0.709909	0.140061	0.648649
	H8324	H	0.656788	0.129701	0.604693
	H8325	H	0.719273	0.192761	0.897045
	H8326	H	0.643961	0.127600	0.895382
	H8327	H	0.706458	0.190208	0.604827
	H8328	H	0.644205	0.124858	0.604835
	H8329	H	0.706683	0.187916	0.897344
	H8330	H	0.656565	0.132527	0.894978
	H8331	H	0.719080	0.195068	0.605233
	Co8332	Co	0.745133	0.216088	0.624800
	Co8333	Co	0.682638	0.153629	0.623802
	Co8334	Co	0.620147	0.091083	0.876123
	Co8335	Co	0.682668	0.153620	0.874636
	C8336	C	0.645561	0.278471	0.923170
	C8337	C	0.696692	0.136697	0.921637
	C8338	C	0.672050	0.187872	0.575928
	C8339	C	0.736059	0.143869	0.578159
	C8340	C	0.672111	0.188009	0.922345
	C8341	C	0.736051	0.144170	0.923243
	C8342	C	0.645550	0.278468	0.576675
	C8343	C	0.696696	0.136680	0.576922
	C8344	C	0.669758	0.136415	0.672530
	C8345	C	0.732331	0.198734	0.673455
	C8346	C	0.631664	0.115538	0.828161
	C8347	C	0.694035	0.178517	0.827444
	C8348	C	0.631543	0.115892	0.673459
	C8349	C	0.694145	0.178257	0.672873
	C8350	C	0.669772	0.136474	0.826675
	C8351	C	0.732282	0.199059	0.827312
	C8352	C	0.648648	0.268128	1.000564
	C8353	C	0.701297	0.136041	0.499652
	C8354	C	0.668968	0.198293	0.999679
	C8355	C	0.731449	0.145830	0.500661
	C8356	C	0.665340	0.134117	0.749744
	C8357	C	0.727873	0.196516	0.750437
	C8358	C	0.635684	0.120575	0.750624
	C8359	C	0.698166	0.183342	0.750375
	C8360	C	0.653816	0.250506	1.000795
	C8361	C	0.708940	0.138419	0.499757
	C8362	C	0.663834	0.215968	1.000173
	C8363	C	0.723707	0.144716	0.500094
	C8364	C	0.657781	0.131268	0.749836
	C8365	C	0.720281	0.193868	0.750767
	C8366	C	0.643028	0.125595	0.750204
	C8367	C	0.705511	0.188363	0.750869
	C8368	C	0.656478	0.241914	1.008398
	C8369	C	0.712790	0.139637	0.916850
	C8370	C	0.661247	0.224839	0.502811
	C8371	C	0.719834	0.143697	0.582767
	C8372	C	0.661344	0.225136	1.008118
	C8373	C	0.719954	0.142580	0.917077
	C8374	C	0.656404	0.241641	0.503123
	C8375	C	0.712686	0.140654	0.582697
	C8376	C	0.654039	0.129297	0.668878
	C8377	C	0.716527	0.192178	0.832461
	C8378	C	0.646748	0.128041	0.831144
	C8379	C	0.709231	0.190644	0.669427
	C8380	C	0.646870	0.126513	0.668908
	C8381	C	0.709350	0.189469	0.832598
	C8382	C	0.653921	0.130778	0.830954
	C8383	C	0.716409	0.193357	0.669434
	N8384	N	0.641049	0.293843	0.952358
	N8385	N	0.689779	0.138523	0.950172
	N8386	N	0.676585	0.172606	0.546853
	N8387	N	0.742918	0.140380	0.549503
	N8388	N	0.676637	0.172766	0.951532
	N8389	N	0.742880	0.140458	0.952265
	N8390	N	0.641042	0.293788	0.547643
	N8391	N	0.689811	0.138547	0.548517
	N8392	N	0.676276	0.140195	0.701027
	N8393	N	0.738835	0.202495	0.702032
	N8394	N	0.625782	0.107724	0.799103
	N8395	N	0.688214	0.170475	0.797795
	N8396	N	0.625689	0.107965	0.702754
	N8397	N	0.688269	0.170337	0.701385
	N8398	N	0.676276	0.140259	0.797886
	N8399	N	0.738814	0.202693	0.798389
	H8400	H	0.645393	0.382849	0.348427
	H8401	H	0.708995	0.338393	0.349990
	H8402	H	0.682226	0.393046	0.152931
	H8403	H	0.733690	0.252759	0.150866
	H8404	H	0.682132	0.392727	0.348025
	H8405	H	0.733963	0.253459	0.349480
	H8406	H	0.645434	0.383410	0.151929
	H8407	H	0.708785	0.337942	0.150310
	H8408	H	0.685026	0.348859	0.098301
	H8409	H	0.747515	0.411183	0.098923
	H8410	H	0.649154	0.330752	0.401073
	H8411	H	0.711648	0.392960	0.401231
	H8412	H	0.649150	0.330494	0.099529
	H8413	H	0.711553	0.393155	0.098809
	H8414	H	0.685105	0.348701	0.401795
	H8415	H	0.747527	0.411413	0.401934
	H8416	H	0.657527	0.384490	0.351558
	H8417	H	0.717475	0.311554	0.428765
	H8418	H	0.670136	0.389829	-0.147417
	H8419	H	0.725833	0.281376	0.026647
	H8420	H	0.670042	0.390057	0.351753
	H8421	H	0.726049	0.282054	0.428001
	H8422	H	0.657577	0.384635	-0.147389
	H8423	H	0.717248	0.310853	0.027057
	H8424	H	0.673649	0.339858	0.104534
	H8425	H	0.736049	0.402912	0.104689
	H8426	H	0.661107	0.334733	0.395646
	H8427	H	0.723566	0.396594	0.394177
	H8428	H	0.661062	0.334741	0.104897
	H8429	H	0.723476	0.397801	0.104859
	H8430	H	0.673669	0.339755	0.395808
	H8431	H	0.736166	0.401695	0.394355
	Co8432	Co	0.759994	0.437738	0.125287
	Co8433	Co	0.697531	0.375316	0.124620
	Co8434	Co	0.635052	0.313136	0.375106
	Co8435	Co	0.697473	0.375456	0.375411
	C8436	C	0.644130	0.383719	0.422691
	C8437	C	0.708126	0.341155	0.423511
	C8438	C	0.683506	0.392340	0.078092
	C8439	C	0.734555	0.250119	0.077464
	C8440	C	0.683400	0.392219	0.422483
	C8441	C	0.734684	0.250531	0.423065
	C8442	C	0.644169	0.384242	0.078107
	C8443	C	0.708062	0.340943	0.076941
	C8444	C	0.686113	0.350482	0.172490
	C8445	C	0.748555	0.412949	0.173092
	C8446	C	0.647947	0.330047	0.327355
	C8447	C	0.710422	0.392218	0.327308
	C8448	C	0.647939	0.329904	0.173072
	C8449	C	0.710415	0.392385	0.172681
	C8450	C	0.686134	0.350447	0.327450
	C8451	C	0.748531	0.413052	0.327650
	C8452	C	0.648755	0.382191	0.500163
	C8453	C	0.711232	0.330575	0.000150
	C8454	C	0.678794	0.392876	0.500173
	C8455	C	0.731495	0.260690	0.000727
	C8456	C	0.682052	0.345514	0.249927
	C8457	C	0.744526	0.408017	0.250322
	C8458	C	0.652402	0.332079	0.250376
	C8459	C	0.714820	0.394500	0.250136
	C8460	C	0.656472	0.383519	0.500215
	C8461	C	0.716398	0.312924	0.000623
	C8462	C	0.671161	0.390416	0.500393
	C8463	C	0.726357	0.278363	0.000780
	C8464	C	0.674722	0.340453	0.250017
	C8465	C	0.737160	0.402949	0.249985
	C8466	C	0.659989	0.334724	0.250583
	C8467	C	0.722423	0.397150	0.249770
	C8468	C	0.660243	0.385477	0.417286
	C8469	C	0.719172	0.304695	0.459992
	C8470	C	0.667447	0.388740	-0.081865
	C8471	C	0.723893	0.287491	0.015498
	C8472	C	0.667366	0.388732	0.417589
	C8473	C	0.724038	0.287951	0.459886
	C8474	C	0.660300	0.385634	-0.081838
	C8475	C	0.719047	0.304271	0.015459
	C8476	C	0.670956	0.338696	0.168758
	C8477	C	0.733363	0.401573	0.168846
	C8478	C	0.663812	0.335905	0.331550
	C8479	C	0.726263	0.398013	0.330424
	C8480	C	0.663785	0.335871	0.169151
	C8481	C	0.726211	0.398748	0.168692
	C8482	C	0.670970	0.338769	0.331421
	C8483	C	0.733409	0.400859	0.330509
	N8484	N	0.637275	0.387235	0.451494
	N8485	N	0.703579	0.356409	0.452565
	N8486	N	0.690397	0.390394	0.049424
	N8487	N	0.739111	0.234938	0.048052
	N8488	N	0.690299	0.390336	0.450823
	N8489	N	0.739173	0.235203	0.452616
	N8490	N	0.637306	0.387454	0.049355
	N8491	N	0.703599	0.356334	0.047409
	N8492	N	0.691952	0.358479	0.201587
	N8493	N	0.754419	0.420957	0.202434
	N8494	N	0.641386	0.326572	0.298525
	N8495	N	0.703859	0.388760	0.298480
	N8496	N	0.641371	0.326563	0.201763
	N8497	N	0.703868	0.388812	0.201544
	N8498	N	0.691949	0.358528	0.298131
	N8499	N	0.754398	0.421006	0.298745
	H8500	H	0.645396	0.382963	0.848983
	H8501	H	0.709033	0.338293	0.849475
	H8502	H	0.682140	0.393269	0.651733
	H8503	H	0.733495	0.252624	0.650714
	H8504	H	0.682174	0.392990	0.848585
	H8505	H	0.733877	0.253392	0.850567
	H8506	H	0.645445	0.383034	0.652103
	H8507	H	0.708743	0.337975	0.651176
	H8508	H	0.684864	0.349244	0.598957
	H8509	H	0.747472	0.411879	0.599092
	H8510	H	0.649018	0.331101	0.900263
	H8511	H	0.711634	0.393153	0.900350
	H8512	H	0.649059	0.330241	0.598980
	H8513	H	0.711633	0.392652	0.599043
	H8514	H	0.685087	0.348757	0.902415
	H8515	H	0.747547	0.411516	0.902017
	H8516	H	0.657679	0.384021	1.149173
	H8517	H	0.716976	0.310008	0.974584
	H8518	H	0.670129	0.389051	0.649075
	H8519	H	0.725277	0.280114	0.572482
	H8520	H	0.670172	0.389342	1.149008
	H8521	H	0.725465	0.280296	0.974479
	H8522	H	0.657594	0.383429	0.649105
	H8523	H	0.716693	0.309652	0.573223
	H8524	H	0.673602	0.339728	0.604468
	H8525	H	0.736119	0.402785	0.604227
	H8526	H	0.660930	0.335117	0.896016
	H8527	H	0.723563	0.397050	0.895893
	H8528	H	0.661026	0.334730	0.603935
	H8529	H	0.723563	0.397652	0.603606
	H8530	H	0.673510	0.340165	0.896652
	H8531	H	0.736103	0.402363	0.896329
	Co8532	Co	0.760004	0.438101	0.625129
	Co8533	Co	0.697440	0.375442	0.624225
	Co8534	Co	0.635013	0.312880	0.875446
	Co8535	Co	0.697519	0.375417	0.875360
	C8536	C	0.644163	0.383999	0.923412
	C8537	C	0.708183	0.341072	0.923057
	C8538	C	0.683424	0.392327	0.577424
	C8539	C	0.734455	0.250093	0.577005
	C8540	C	0.683485	0.392318	0.922933
	C8541	C	0.734637	0.250429	0.923832
	C8542	C	0.644133	0.383961	0.577431
	C8543	C	0.708009	0.340931	0.577492
	C8544	C	0.685991	0.350773	0.673119
	C8545	C	0.748549	0.413392	0.672970
	C8546	C	0.647806	0.330238	0.826735
	C8547	C	0.710395	0.392342	0.826740
	C8548	C	0.647844	0.329820	0.672615
	C8549	C	0.710408	0.392138	0.672700
	C8550	C	0.686092	0.350554	0.828036
	C8551	C	0.748574	0.413215	0.827692
	C8552	C	0.648790	0.382518	1.000751
	C8553	C	0.711174	0.330667	0.500557
	C8554	C	0.678881	0.392949	1.000529
	C8555	C	0.731489	0.260810	0.499973
	C8556	C	0.681963	0.345684	0.750783
	C8557	C	0.744498	0.408324	0.750375
	C8558	C	0.652281	0.332267	0.749740
	C8559	C	0.714865	0.394511	0.749783
	C8560	C	0.656499	0.383860	1.000740
	C8561	C	0.716342	0.313023	0.500614
	C8562	C	0.671254	0.390440	1.000563
	C8563	C	0.726365	0.278516	0.499981
	C8564	C	0.674621	0.340630	0.750791
	C8565	C	0.737188	0.403144	0.750321
	C8566	C	0.659858	0.334891	0.750146
	C8567	C	0.722436	0.397170	0.749914
	C8568	C	0.660339	0.385231	1.083356
	C8569	C	0.718862	0.303783	0.986079
	C8570	C	0.667413	0.388160	0.583178
	C8571	C	0.723590	0.286891	0.540805
	C8572	C	0.667484	0.388379	1.083047
	C8573	C	0.723696	0.286984	0.986275
	C8574	C	0.660280	0.384882	0.583193
	C8575	C	0.718712	0.303628	0.541304
	C8576	C	0.670870	0.338765	0.669018
	C8577	C	0.733419	0.401547	0.668513
	C8578	C	0.663637	0.336222	0.831715
	C8579	C	0.726247	0.398282	0.831336
	C8580	C	0.663696	0.335960	0.668762
	C8581	C	0.726251	0.398596	0.668456
	C8582	C	0.670815	0.339020	0.832176
	C8583	C	0.733410	0.401239	0.831749
	N8584	N	0.637313	0.387355	0.952015
	N8585	N	0.703651	0.356382	0.952021
	N8586	N	0.690322	0.390446	0.548855
	N8587	N	0.739037	0.234945	0.548161
	N8588	N	0.690382	0.390396	0.951421
	N8589	N	0.739175	0.235148	0.952681
	N8590	N	0.637273	0.387353	0.548692
	N8591	N	0.703511	0.356277	0.548180
	N8592	N	0.691842	0.358727	0.701968
	N8593	N	0.754399	0.421317	0.702222
	N8594	N	0.641277	0.326497	0.797877
	N8595	N	0.703841	0.388854	0.798244
	N8596	N	0.641319	0.326221	0.701229
	N8597	N	0.703879	0.388590	0.701432
	N8598	N	0.691917	0.358547	0.798555
	N8599	N	0.754413	0.421157	0.798696
	H8600	H	0.640297	0.479976	0.348640
	H8601	H	0.707949	0.445901	0.348474
	H8602	H	0.677478	0.485314	0.152244
	H8603	H	0.744645	0.455393	0.152108
	H8604	H	0.677375	0.485515	0.348097
	H8605	H	0.744674	0.455309	0.349156
	H8606	H	0.640374	0.481136	0.152128
	H8607	H	0.707934	0.445453	0.152216
	H8608	H	0.679634	0.441518	0.098597
	H8609	H	0.742012	0.504396	0.098325
	H8610	H	0.643027	0.426833	0.402162
	H8611	H	0.705405	0.490222	0.401579
	H8612	H	0.643007	0.427119	0.098547
	H8613	H	0.705590	0.489277	0.098477
	H8614	H	0.679569	0.441692	0.402248
	H8615	H	0.742004	0.504366	0.402648
	H8616	H	0.652492	0.481248	0.351292
	H8617	H	0.720109	0.446459	0.352011
	H8618	H	0.665284	0.484519	0.149741
	H8619	H	0.732724	0.451460	-0.148877
	H8620	H	0.665156	0.485081	0.351510
	H8621	H	0.732650	0.451698	0.352175
	H8622	H	0.652593	0.480795	0.149725
	H8623	H	0.720215	0.446119	-0.148688
	H8624	H	0.667593	0.436686	0.101259
	H8625	H	0.730104	0.498667	0.399544
	H8626	H	0.654922	0.432946	0.399638
	H8627	H	0.717276	0.496622	0.101051
	H8628	H	0.654908	0.433230	0.101357
	H8629	H	0.717401	0.494931	0.399159
	H8630	H	0.667626	0.436449	0.399661
	H8631	H	0.729962	0.500133	0.100825
	Co8632	Co	0.755093	0.527806	0.125456
	Co8633	Co	0.692690	0.464948	0.124757
	Co8634	Co	0.630138	0.402557	0.374994
	Co8635	Co	0.692598	0.465412	0.375537
	C8636	C	0.639004	0.481086	0.422940
	C8637	C	0.706635	0.446837	0.423093
	C8638	C	0.678741	0.484215	0.077823
	C8639	C	0.745995	0.454711	0.077783
	C8640	C	0.678631	0.484549	0.422873
	C8641	C	0.745909	0.454651	0.423202
	C8642	C	0.639092	0.481718	0.077725
	C8643	C	0.706694	0.446439	0.077833
	C8644	C	0.680691	0.443030	0.172884
	C8645	C	0.743132	0.505782	0.173044
	C8646	C	0.641953	0.425327	0.327423
	C8647	C	0.704350	0.488488	0.327504
	C8648	C	0.641924	0.425599	0.172835
	C8649	C	0.704437	0.488056	0.172706
	C8650	C	0.680674	0.443168	0.327947
	C8651	C	0.743125	0.505737	0.328065
	C8652	C	0.643647	0.479578	0.500430
	C8653	C	0.711350	0.444948	0.000357
	C8654	C	0.674006	0.486220	0.500529
	C8655	C	0.741378	0.455567	0.000113
	C8656	C	0.676370	0.439647	0.250440
	C8657	C	0.738803	0.502365	0.250399
	C8658	C	0.646219	0.429301	0.250279
	C8659	C	0.708647	0.492181	0.250158
	C8660	C	0.651395	0.480556	0.500633
	C8661	C	0.718997	0.446528	0.000317
	C8662	C	0.666272	0.485368	0.500868
	C8663	C	0.733739	0.453186	-0.000184
	C8664	C	0.668768	0.436720	0.250436
	C8665	C	0.731195	0.499422	0.250307
	C8666	C	0.653777	0.432793	0.250451
	C8667	C	0.716213	0.495577	0.250195
	C8668	C	0.655221	0.481913	0.417521
	C8669	C	0.722765	0.447840	0.417874
	C8670	C	0.662540	0.484019	0.083740
	C8671	C	0.730000	0.450867	-0.082937
	C8672	C	0.662434	0.484227	0.417689
	C8673	C	0.729907	0.450929	0.417912
	C8674	C	0.655305	0.481828	0.083655
	C8675	C	0.722846	0.447642	-0.082590
	C8676	C	0.664884	0.435865	0.167366
	C8677	C	0.727355	0.498129	0.333320
	C8678	C	0.657638	0.433834	0.333520
	C8679	C	0.720033	0.496969	0.167242
	C8680	C	0.657630	0.433924	0.167505
	C8681	C	0.720106	0.496206	0.333162
	C8682	C	0.664890	0.435804	0.333489
	C8683	C	0.727285	0.498892	0.167280
	N8684	N	0.632147	0.484604	0.451681
	N8685	N	0.699783	0.450156	0.451661
	N8686	N	0.685566	0.480392	0.048899
	N8687	N	0.752883	0.452756	0.049438
	N8688	N	0.685479	0.480899	0.451745
	N8689	N	0.752811	0.452823	0.451562
	N8690	N	0.632245	0.484980	0.049183
	N8691	N	0.699862	0.449561	0.049498
	N8692	N	0.686957	0.448892	0.201881
	N8693	N	0.749405	0.511560	0.202167
	N8694	N	0.635780	0.419051	0.298534
	N8695	N	0.698204	0.481882	0.298224
	N8696	N	0.635747	0.419259	0.201573
	N8697	N	0.698268	0.481589	0.201701
	N8698	N	0.686963	0.448929	0.299103
	N8699	N	0.749402	0.511532	0.299385
	H8700	H	0.640294	0.480130	0.848307
	H8701	H	0.707940	0.445162	0.849282
	H8702	H	0.677394	0.485471	0.652473
	H8703	H	0.744689	0.455451	0.652771
	H8704	H	0.677487	0.485114	0.849013
	H8705	H	0.744719	0.455891	0.847749
	H8706	H	0.640299	0.480702	0.651654
	H8707	H	0.707827	0.445311	0.652472
	H8708	H	0.679443	0.442103	0.597763
	H8709	H	0.742032	0.504210	0.599318
	H8710	H	0.642936	0.427068	0.901274
	H8711	H	0.705565	0.489392	0.903083
	H8712	H	0.642975	0.426825	0.598910
	H8713	H	0.705515	0.489636	0.599403
	H8714	H	0.679613	0.441422	0.902026
	H8715	H	0.742035	0.504491	0.902775
	H8716	H	0.652549	0.481645	0.851179
	H8717	H	0.720127	0.447634	1.149633
	H8718	H	0.665193	0.484890	0.649998
	H8719	H	0.732552	0.452210	0.649473
	H8720	H	0.665212	0.485337	0.851374
	H8721	H	0.732614	0.452902	1.148825
	H8722	H	0.652499	0.481138	0.650140
	H8723	H	0.720033	0.447055	0.649176
	H8724	H	0.667557	0.436416	0.600912
	H8725	H	0.730037	0.499244	0.601651
	H8726	H	0.654883	0.433382	0.899602
	H8727	H	0.717408	0.495520	0.900122
	H8728	H	0.654901	0.432937	0.601081
	H8729	H	0.717334	0.495889	0.601901
	H8730	H	0.667569	0.436841	0.899266
	H8731	H	0.730061	0.499269	0.899733
	Co8732	Co	0.755115	0.527813	0.625797
	Co8733	Co	0.692601	0.465253	0.624882
	Co8734	Co	0.630119	0.402278	0.875072
	Co8735	Co	0.692663	0.464891	0.876114
	C8736	C	0.639076	0.481366	0.922942
	C8737	C	0.706680	0.446410	0.923193
	C8738	C	0.678641	0.484419	0.578003
	C8739	C	0.745943	0.454705	0.578221
	C8740	C	0.678723	0.484214	0.922915
	C8741	C	0.746029	0.454991	0.922825
	C8742	C	0.639015	0.481489	0.577762
	C8743	C	0.706603	0.446619	0.578121
	C8744	C	0.680609	0.443250	0.672467
	C8745	C	0.743148	0.505650	0.673591
	C8746	C	0.641884	0.425439	0.827711
	C8747	C	0.704411	0.488010	0.828806
	C8748	C	0.641882	0.425572	0.673189
	C8749	C	0.704420	0.488049	0.673760
	C8750	C	0.680672	0.442941	0.827421
	C8751	C	0.743103	0.505860	0.828330
	C8752	C	0.643728	0.479938	1.000466
	C8753	C	0.711234	0.445067	0.500763
	C8754	C	0.674096	0.486086	1.000603
	C8755	C	0.741317	0.455242	0.500830
	C8756	C	0.676312	0.439737	0.750015
	C8757	C	0.738810	0.502286	0.750771
	C8758	C	0.646149	0.429474	0.750461
	C8759	C	0.708673	0.491929	0.751256
	C8760	C	0.651452	0.480822	1.000496
	C8761	C	0.718941	0.446405	0.500634
	C8762	C	0.666359	0.485371	1.000666
	C8763	C	0.733686	0.452873	0.500672
	C8764	C	0.668721	0.436748	0.749975
	C8765	C	0.731219	0.499350	0.750728
	C8766	C	0.653690	0.432943	0.750455
	C8767	C	0.716237	0.495428	0.751022
	C8768	C	0.655274	0.482235	0.917308
	C8769	C	0.722772	0.448456	1.083123
	C8770	C	0.662444	0.484164	0.584010
	C8771	C	0.729877	0.451071	0.583396
	C8772	C	0.662508	0.484370	0.917567
	C8773	C	0.729917	0.451709	1.082746
	C8774	C	0.655230	0.481843	0.583877
	C8775	C	0.722735	0.447973	0.583310
	C8776	C	0.664839	0.435693	0.666999
	C8777	C	0.727334	0.498442	0.667922
	C8778	C	0.657571	0.434069	0.833431
	C8779	C	0.720106	0.496486	0.833915
	C8780	C	0.657578	0.433778	0.667406
	C8781	C	0.720077	0.496540	0.668032
	C8782	C	0.664841	0.435944	0.833205
	C8783	C	0.727354	0.498426	0.833737
	N8784	N	0.632236	0.484755	0.951746
	N8785	N	0.699832	0.449506	0.951716
	N8786	N	0.685490	0.480822	0.549062
	N8787	N	0.752830	0.452889	0.549526
	N8788	N	0.685565	0.480409	0.951834
	N8789	N	0.752896	0.452911	0.951640
	N8790	N	0.632172	0.484830	0.548891
	N8791	N	0.699772	0.450029	0.549062
	N8792	N	0.686901	0.448910	0.701088
	N8793	N	0.749416	0.511521	0.702422
	N8794	N	0.635740	0.418955	0.798894
	N8795	N	0.698241	0.481547	0.799528
	N8796	N	0.635774	0.418974	0.701858
	N8797	N	0.698255	0.481597	0.702711
	N8798	N	0.686937	0.448765	0.798218
	N8799	N	0.749377	0.511604	0.799569
	H8800	H	0.635013	0.576823	0.348908
	H8801	H	0.702716	0.543156	0.348303
	H8802	H	0.672286	0.581756	0.153107
	H8803	H	0.739911	0.548028	0.152945
	H8804	H	0.672111	0.582597	0.349445
	H8805	H	0.739919	0.548307	0.349287
	H8806	H	0.635128	0.577213	0.151420
	H8807	H	0.702831	0.542490	0.151734
	H8808	H	0.674644	0.537902	0.099166
	H8809	H	0.737085	0.600680	0.099564
	H8810	H	0.637965	0.523881	0.401998
	H8811	H	0.700299	0.587404	0.402331
	H8812	H	0.637915	0.524400	0.098839
	H8813	H	0.700559	0.586138	0.099073
	H8814	H	0.674513	0.538868	0.402208
	H8815	H	0.737003	0.601302	0.403064
	H8816	H	0.647267	0.578013	0.351488
	H8817	H	0.714983	0.543679	0.350800
	H8818	H	0.660031	0.580938	0.150795
	H8819	H	0.727644	0.548385	0.150237
	H8820	H	0.659921	0.581678	0.351539
	H8821	H	0.727599	0.547395	0.350880
	H8822	H	0.647370	0.577203	0.149809
	H8823	H	0.715030	0.544510	0.149890
	H8824	H	0.662644	0.532543	0.101401
	H8825	H	0.725007	0.595995	0.101512
	H8826	H	0.649914	0.530010	0.399777
	H8827	H	0.712396	0.591696	0.400866
	H8828	H	0.649933	0.529467	0.101479
	H8829	H	0.712310	0.592927	0.101614
	H8830	H	0.662620	0.533104	0.400144
	H8831	H	0.725088	0.595001	0.401011
	Co8832	Co	0.749973	0.625066	0.125831
	Co8833	Co	0.687567	0.562240	0.125347
	Co8834	Co	0.625003	0.499854	0.375416
	Co8835	Co	0.687457	0.562890	0.375912
	C8836	C	0.633812	0.578135	0.423166
	C8837	C	0.701500	0.544206	0.422983
	C8838	C	0.673532	0.580986	0.079058
	C8839	C	0.741174	0.546956	0.078637
	C8840	C	0.673417	0.581347	0.423464
	C8841	C	0.741137	0.547026	0.423686
	C8842	C	0.633854	0.578269	0.077523
	C8843	C	0.701605	0.543810	0.077496
	C8844	C	0.675723	0.539621	0.173573
	C8845	C	0.738143	0.602312	0.173836
	C8846	C	0.636899	0.522492	0.327987
	C8847	C	0.699262	0.585651	0.328065
	C8848	C	0.636864	0.522832	0.173334
	C8849	C	0.699394	0.585037	0.173538
	C8850	C	0.675627	0.540131	0.328242
	C8851	C	0.738096	0.602642	0.328583
	C8852	C	0.638442	0.576285	0.500773
	C8853	C	0.706226	0.542428	0.000163
	C8854	C	0.668788	0.582795	0.501078
	C8855	C	0.736570	0.548934	0.000994
	C8856	C	0.671395	0.536201	0.250769
	C8857	C	0.733818	0.598767	0.251263
	C8858	C	0.641168	0.526424	0.250684
	C8859	C	0.703617	0.589040	0.251031
	C8860	C	0.646162	0.577060	0.500832
	C8861	C	0.713944	0.543434	0.000352
	C8862	C	0.661053	0.581758	0.500767
	C8863	C	0.728831	0.548208	0.000714
	C8864	C	0.663805	0.533102	0.250781
	C8865	C	0.726225	0.595673	0.251149
	C8866	C	0.648761	0.529542	0.250576
	C8867	C	0.711194	0.592183	0.251256
	C8868	C	0.649985	0.578475	0.417760
	C8869	C	0.717696	0.544483	0.417151
	C8870	C	0.657328	0.580392	0.084509
	C8871	C	0.724957	0.547353	0.083729
	C8872	C	0.657209	0.580734	0.417687
	C8873	C	0.724914	0.546718	0.417491
	C8874	C	0.650102	0.578103	0.083888
	C8875	C	0.717755	0.545042	0.083657
	C8876	C	0.659920	0.532005	0.167824
	C8877	C	0.722318	0.595073	0.167939
	C8878	C	0.652646	0.530567	0.333388
	C8879	C	0.715090	0.592751	0.334538
	C8880	C	0.652651	0.530255	0.167631
	C8881	C	0.715049	0.593385	0.167956
	C8882	C	0.659911	0.532331	0.333691
	C8883	C	0.722360	0.594513	0.334496
	N8884	N	0.626971	0.581873	0.451775
	N8885	N	0.694654	0.547599	0.451702
	N8886	N	0.680373	0.577574	0.050106
	N8887	N	0.748018	0.543348	0.049781
	N8888	N	0.680268	0.577974	0.452585
	N8889	N	0.747968	0.543269	0.452310
	N8890	N	0.627036	0.581997	0.048403
	N8891	N	0.694755	0.547194	0.048867
	N8892	N	0.681926	0.545885	0.202366
	N8893	N	0.744357	0.608558	0.202526
	N8894	N	0.630679	0.516373	0.299065
	N8895	N	0.693098	0.579246	0.298825
	N8896	N	0.630676	0.516518	0.202131
	N8897	N	0.693176	0.578933	0.201809
	N8898	N	0.681870	0.546171	0.299533
	N8899	N	0.744305	0.608865	0.299766
	H8900	H	0.635176	0.577216	0.848085
	H8901	H	0.702872	0.543368	0.848703
	H8902	H	0.672093	0.581861	0.653247
	H8903	H	0.739933	0.547956	0.653036
	H8904	H	0.672266	0.582500	0.849480
	H8905	H	0.739966	0.548382	0.849143
	H8906	H	0.635009	0.577384	0.653159
	H8907	H	0.702739	0.542623	0.651932
	H8908	H	0.674612	0.538148	0.599238
	H8909	H	0.737084	0.600471	0.598828
	H8910	H	0.638015	0.523822	0.902770
	H8911	H	0.700504	0.586812	0.901645
	H8912	H	0.637906	0.524390	0.598946
	H8913	H	0.700440	0.586660	0.598191
	H8914	H	0.674465	0.538871	0.903061
	H8915	H	0.736946	0.601282	0.902435
	H8916	H	0.647384	0.578341	0.851305
	H8917	H	0.715111	0.543370	0.850822
	H8918	H	0.660025	0.580596	0.649612
	H8919	H	0.727587	0.547530	0.650582
	H8920	H	0.660017	0.582145	0.852023
	H8921	H	0.727783	0.547054	0.851491
	H8922	H	0.647331	0.577063	0.650082
	H8923	H	0.714971	0.543765	0.650190
	H8924	H	0.662627	0.532690	0.601460
	H8925	H	0.725156	0.595506	0.601617
	H8926	H	0.649874	0.530186	0.900134
	H8927	H	0.712418	0.591811	0.899089
	H8928	H	0.649945	0.529339	0.601383
	H8929	H	0.712400	0.592263	0.601074
	H8930	H	0.662566	0.533506	0.899707
	H8931	H	0.725117	0.595319	0.899641
	Co8932	Co	0.749945	0.625167	0.625737
	Co8933	Co	0.687468	0.562514	0.625640
	Co8934	Co	0.625003	0.499663	0.875144
	Co8935	Co	0.687526	0.562674	0.876008
	C8936	C	0.633885	0.578293	0.922543
	C8937	C	0.701614	0.544305	0.922751
	C8938	C	0.673414	0.581067	0.578539
	C8939	C	0.741139	0.546930	0.578270
	C8940	C	0.673509	0.581305	0.924071
	C8941	C	0.741198	0.547179	0.923679
	C8942	C	0.633799	0.578203	0.578032
	C8943	C	0.701505	0.543932	0.577699
	C8944	C	0.675649	0.539853	0.673536
	C8945	C	0.738179	0.602213	0.673168
	C8946	C	0.636854	0.522486	0.827903
	C8947	C	0.699360	0.585313	0.827313
	C8948	C	0.636840	0.522688	0.673093
	C8949	C	0.699346	0.585198	0.672392
	C8950	C	0.675619	0.540070	0.828242
	C8951	C	0.738117	0.602543	0.828333
	C8952	C	0.638514	0.576416	1.000288
	C8953	C	0.706119	0.542351	0.500275
	C8954	C	0.668879	0.582850	1.001694
	C8955	C	0.736483	0.548934	0.500976
	C8956	C	0.671319	0.536301	0.750818
	C8957	C	0.733858	0.598702	0.750566
	C8958	C	0.641166	0.526282	0.750729
	C8959	C	0.703660	0.588834	0.749789
	C8960	C	0.646261	0.577190	1.000545
	C8961	C	0.713841	0.543274	0.500460
	C8962	C	0.661162	0.581972	1.001591
	C8963	C	0.728752	0.548010	0.500762
	C8964	C	0.663728	0.533208	0.750733
	C8965	C	0.726258	0.595561	0.750494
	C8966	C	0.648723	0.529506	0.750771
	C8967	C	0.711254	0.591934	0.750022
	C8968	C	0.650083	0.578874	0.917516
	C8969	C	0.717802	0.544411	0.917260
	C8970	C	0.657256	0.580194	0.583716
	C8971	C	0.724914	0.546735	0.583715
	C8972	C	0.657313	0.581137	0.918206
	C8973	C	0.725022	0.546638	0.917511
	C8974	C	0.650035	0.578023	0.583806
	C8975	C	0.717685	0.544516	0.583939
	C8976	C	0.659877	0.532058	0.667491
	C8977	C	0.722397	0.594709	0.667388
	C8978	C	0.652563	0.530724	0.833685
	C8979	C	0.715134	0.592770	0.833115
	C8980	C	0.652605	0.530227	0.667793
	C8981	C	0.715133	0.592918	0.667085
	C8982	C	0.659830	0.532546	0.833701
	C8983	C	0.722392	0.594616	0.833424
	N8984	N	0.627051	0.581994	0.951178
	N8985	N	0.694760	0.547492	0.951358
	N8986	N	0.680259	0.577751	0.549802
	N8987	N	0.747955	0.543159	0.549681
	N8988	N	0.680359	0.577703	0.952824
	N8989	N	0.748031	0.543348	0.952527
	N8990	N	0.626964	0.581920	0.549317
	N8991	N	0.694649	0.547420	0.549086
	N8992	N	0.681851	0.546066	0.702486
	N8993	N	0.744367	0.608530	0.702528
	N8994	N	0.630657	0.516233	0.798946
	N8995	N	0.693101	0.579274	0.798537
	N8996	N	0.630635	0.516449	0.701754
	N8997	N	0.693136	0.579066	0.701661
	N8998	N	0.681833	0.546191	0.799507
	N8999	N	0.744346	0.608647	0.799248
	H9000	H	0.630331	0.669349	0.348357
	H9001	H	0.697552	0.639857	0.347848
	H9002	H	0.667103	0.679511	0.152067
	H9003	H	0.734643	0.644441	0.152924
	H9004	H	0.667099	0.679551	0.348409
	H9005	H	0.734719	0.645301	0.348721
	H9006	H	0.630276	0.669666	0.152787
	H9007	H	0.697515	0.639463	0.152696
	H9008	H	0.669549	0.635158	0.099017
	H9009	H	0.732042	0.697769	0.099652
	H9010	H	0.633002	0.620666	0.401986
	H9011	H	0.695418	0.683694	0.402267
	H9012	H	0.632901	0.620992	0.097968
	H9013	H	0.695536	0.682960	0.098077
	H9014	H	0.669463	0.635714	0.402019
	H9015	H	0.731952	0.698257	0.403162
	H9016	H	0.642468	0.672343	0.649100
	H9017	H	0.709781	0.640087	0.649116
	H9018	H	0.654912	0.677936	0.149051
	H9019	H	0.722520	0.643510	-0.148126
	H9020	H	0.654945	0.677813	0.649104
	H9021	H	0.722441	0.643858	0.649358
	H9022	H	0.642420	0.672424	0.149339
	H9023	H	0.709854	0.639872	-0.148821
	H9024	H	0.657661	0.628846	0.101118
	H9025	H	0.720088	0.692684	0.101903
	H9026	H	0.644860	0.626448	0.398923
	H9027	H	0.707443	0.687578	0.399704
	H9028	H	0.644999	0.625126	0.100633
	H9029	H	0.707384	0.689090	0.101414
	H9030	H	0.657538	0.630134	0.399550
	H9031	H	0.720147	0.691142	0.400222
	Co9032	Co	0.744850	0.722428	0.125943
	Co9033	Co	0.682344	0.659777	0.124680
	Co9034	Co	0.619871	0.597322	0.375392
	Co9035	Co	0.682369	0.660030	0.375796
	C9036	C	0.629062	0.670242	0.422837
	C9037	C	0.696330	0.640895	0.422175
	C9038	C	0.668363	0.678563	0.077927
	C9039	C	0.735917	0.643676	0.078584
	C9040	C	0.668375	0.678481	0.422935
	C9041	C	0.735960	0.643994	0.423184
	C9042	C	0.629000	0.670248	0.077737
	C9043	C	0.696282	0.640561	0.078085
	C9044	C	0.670576	0.636980	0.173319
	C9045	C	0.733097	0.699336	0.174112
	C9046	C	0.631878	0.619294	0.327242
	C9047	C	0.694304	0.682104	0.327664
	C9048	C	0.631821	0.619499	0.172398
	C9049	C	0.694365	0.681647	0.172653
	C9050	C	0.670569	0.637094	0.327865
	C9051	C	0.733030	0.699617	0.328831
	C9052	C	0.633684	0.669576	0.500184
	C9053	C	0.700940	0.638923	0.000779
	C9054	C	0.663750	0.680161	0.500491
	C9055	C	0.731297	0.645365	0.000979
	C9056	C	0.666311	0.633197	0.250600
	C9057	C	0.728804	0.695555	0.251250
	C9058	C	0.636165	0.622803	0.249799
	C9059	C	0.698670	0.685246	0.250225
	C9060	C	0.641326	0.671991	0.500069
	C9061	C	0.708682	0.639650	0.000976
	C9062	C	0.656048	0.678781	0.500480
	C9063	C	0.723565	0.644417	0.000995
	C9064	C	0.658733	0.629756	0.250376
	C9065	C	0.721261	0.692123	0.251171
	C9066	C	0.643761	0.625746	0.249717
	C9067	C	0.706286	0.688187	0.250531
	C9068	C	0.645124	0.673672	0.582996
	C9069	C	0.712516	0.640886	0.583148
	C9070	C	0.652228	0.676923	0.083036
	C9071	C	0.719760	0.642896	-0.082167
	C9072	C	0.652260	0.676870	0.583139
	C9073	C	0.719747	0.643124	0.583017
	C9074	C	0.645084	0.673733	0.083315
	C9075	C	0.712545	0.640628	-0.082270
	C9076	C	0.654905	0.628325	0.167109
	C9077	C	0.717393	0.691522	0.168009
	C9078	C	0.647597	0.627080	0.332735
	C9079	C	0.710172	0.688674	0.333780
	C9080	C	0.647666	0.626317	0.166847
	C9081	C	0.710138	0.689562	0.167623
	C9082	C	0.654839	0.629017	0.333201
	C9083	C	0.717417	0.690646	0.334052
	N9084	N	0.622171	0.672363	0.451749
	N9085	N	0.689490	0.644425	0.451043
	N9086	N	0.675217	0.675190	0.048776
	N9087	N	0.742761	0.640230	0.049531
	N9088	N	0.675219	0.675225	0.451738
	N9089	N	0.742794	0.640578	0.452177
	N9090	N	0.622135	0.672190	0.048900
	N9091	N	0.689449	0.644287	0.049107
	N9092	N	0.676749	0.643362	0.202164
	N9093	N	0.739247	0.705877	0.203076
	N9094	N	0.625598	0.613487	0.298525
	N9095	N	0.688030	0.676250	0.298547
	N9096	N	0.625543	0.613678	0.201372
	N9097	N	0.688072	0.675997	0.201502
	N9098	N	0.676747	0.643470	0.299040
	N9099	N	0.739193	0.706079	0.300096
	H9100	H	0.630360	0.669585	0.847838
	H9101	H	0.697612	0.640017	0.848685
	H9102	H	0.667138	0.679531	0.652514
	H9103	H	0.734598	0.644202	0.652611
	H9104	H	0.667061	0.679393	0.848628
	H9105	H	0.734684	0.644901	0.848911
	H9106	H	0.630380	0.670006	0.652229
	H9107	H	0.697530	0.639311	0.651787
	H9108	H	0.669471	0.635469	0.598527
	H9109	H	0.732084	0.697839	0.599191
	H9110	H	0.632975	0.620855	0.901840
	H9111	H	0.695467	0.683324	0.902374
	H9112	H	0.633000	0.620884	0.598054
	H9113	H	0.695531	0.682917	0.598292
	H9114	H	0.669534	0.635422	0.902215
	H9115	H	0.732034	0.698199	0.902850
	H9116	H	0.642340	0.673251	0.851697
	H9117	H	0.709775	0.640792	1.150624
	H9118	H	0.654897	0.678759	0.351449
	H9119	H	0.722427	0.643869	0.350435
	H9120	H	0.654841	0.678712	0.851709
	H9121	H	0.722451	0.644382	1.150367
	H9122	H	0.642391	0.673223	0.351061
	H9123	H	0.709819	0.640203	0.350738
	H9124	H	0.657672	0.628596	0.601416
	H9125	H	0.720192	0.691970	0.601702
	H9126	H	0.644868	0.626578	0.899601
	H9127	H	0.707548	0.688100	0.899525
	H9128	H	0.645061	0.625177	0.600730
	H9129	H	0.707568	0.688162	0.601374
	H9130	H	0.657570	0.630021	0.900114
	H9131	H	0.720176	0.691887	0.899867
	Co9132	Co	0.744901	0.722494	0.625723
	Co9133	Co	0.682379	0.659867	0.624486
	Co9134	Co	0.619890	0.597372	0.875536
	Co9135	Co	0.682365	0.660010	0.875727
	C9136	C	0.629043	0.670170	0.922486
	C9137	C	0.696330	0.640936	0.923232
	C9138	C	0.668389	0.678615	0.577871
	C9139	C	0.735909	0.643508	0.578064
	C9140	C	0.668340	0.678426	0.922668
	C9141	C	0.735928	0.643727	0.923455
	C9142	C	0.629089	0.670461	0.578113
	C9143	C	0.696309	0.640519	0.577275
	C9144	C	0.670548	0.637041	0.672889
	C9145	C	0.733181	0.699293	0.673564
	C9146	C	0.631861	0.619426	0.827622
	C9147	C	0.694368	0.681917	0.827820
	C9148	C	0.631868	0.619533	0.672612
	C9149	C	0.694413	0.681733	0.672934
	C9150	C	0.670604	0.636930	0.827752
	C9151	C	0.733134	0.699537	0.828414
	C9152	C	0.633645	0.669631	1.000514
	C9153	C	0.700955	0.638890	0.499975
	C9154	C	0.663701	0.680136	1.000437
	C9155	C	0.731295	0.645339	0.500469
	C9156	C	0.666314	0.633067	0.750656
	C9157	C	0.728893	0.695571	0.750831
	C9158	C	0.636175	0.622979	0.750386
	C9159	C	0.698741	0.685219	0.750470
	C9160	C	0.641287	0.672031	1.000608
	C9161	C	0.708683	0.639661	0.499974
	C9162	C	0.655997	0.678764	1.000445
	C9163	C	0.723588	0.644311	0.500104
	C9164	C	0.658772	0.629646	0.750893
	C9165	C	0.721351	0.692134	0.750735
	C9166	C	0.643773	0.625909	0.750414
	C9167	C	0.706337	0.688169	0.750631
	C9168	C	0.645052	0.674120	0.917603
	C9169	C	0.712501	0.641196	1.084317
	C9170	C	0.652238	0.677368	0.417444
	C9171	C	0.719759	0.643075	0.416973
	C9172	C	0.652187	0.677333	0.917584
	C9173	C	0.719715	0.643510	1.084307
	C9174	C	0.645096	0.674109	0.417232
	C9175	C	0.712529	0.640893	0.416822
	C9176	C	0.654951	0.628192	0.667683
	C9177	C	0.717486	0.691043	0.667829
	C9178	C	0.647614	0.627150	0.833450
	C9179	C	0.710223	0.689049	0.833404
	C9180	C	0.647703	0.626336	0.667373
	C9181	C	0.710223	0.689135	0.667904
	C9182	C	0.654877	0.628953	0.833673
	C9183	C	0.717482	0.691035	0.833675
	N9184	N	0.622159	0.672192	0.950803
	N9185	N	0.689479	0.644516	0.951671
	N9186	N	0.675237	0.675308	0.549072
	N9187	N	0.742746	0.640328	0.549855
	N9188	N	0.675214	0.675208	0.951632
	N9189	N	0.742773	0.640353	0.952431
	N9190	N	0.622195	0.672467	0.549643
	N9191	N	0.689468	0.644201	0.548519
	N9192	N	0.676738	0.643446	0.701764
	N9193	N	0.739313	0.705838	0.702576
	N9194	N	0.625617	0.613563	0.798621
	N9195	N	0.688082	0.676163	0.798648
	N9196	N	0.625598	0.613677	0.701523
	N9197	N	0.688139	0.676009	0.701403
	N9198	N	0.676766	0.643360	0.798706
	N9199	N	0.739303	0.705911	0.799712
	H9200	H	0.641322	0.872097	0.348831
	H9201	H	0.692828	0.732184	0.348702
	H9202	H	0.666115	0.786891	0.150139
	H9203	H	0.729526	0.742076	0.153013
	H9204	H	0.666165	0.787194	0.350083
	H9205	H	0.729604	0.742137	0.349677
	H9206	H	0.641153	0.871855	0.151619
	H9207	H	0.692801	0.732424	0.153368
	H9208	H	0.663484	0.731675	0.099896
	H9209	H	0.725909	0.794378	0.100020
	H9210	H	0.627450	0.713491	0.401567
	H9211	H	0.689979	0.776172	0.401830
	H9212	H	0.627495	0.713452	0.098307
	H9213	H	0.689945	0.776379	0.097874
	H9214	H	0.663329	0.732543	0.400754
	H9215	H	0.725795	0.794916	0.400841
	H9216	H	0.648530	0.842346	0.525071
	H9217	H	0.704966	0.734774	0.351979
	H9218	H	0.658085	0.814920	-0.046260
	H9219	H	0.717382	0.740524	-0.147996
	H9220	H	0.657053	0.812736	0.525711
	H9221	H	0.717473	0.740204	0.352747
	H9222	H	0.649495	0.844490	-0.045182
	H9223	H	0.704854	0.735036	-0.147506
	H9224	H	0.651585	0.727031	0.103626
	H9225	H	0.713880	0.791240	0.104708
	H9226	H	0.638867	0.722999	0.396175
	H9227	H	0.701446	0.784562	0.396054
	H9228	H	0.639007	0.722124	0.103164
	H9229	H	0.701293	0.786086	0.104659
	H9230	H	0.651422	0.728261	0.396754
	H9231	H	0.714019	0.789643	0.396582
	Co9232	Co	0.739995	0.812094	0.125711
	Co9233	Co	0.677479	0.749829	0.124638
	Co9234	Co	0.614988	0.687188	0.375541
	Co9235	Co	0.677544	0.749790	0.375453
	C9236	C	0.640504	0.874760	0.422867
	C9237	C	0.691520	0.732794	0.423059
	C9238	C	0.666886	0.783987	0.076736
	C9239	C	0.730813	0.740995	0.078684
	C9240	C	0.666956	0.784040	0.423631
	C9241	C	0.730839	0.741053	0.424234
	C9242	C	0.640384	0.874689	0.077911
	C9243	C	0.691519	0.732857	0.078865
	C9244	C	0.664648	0.732508	0.173452
	C9245	C	0.727131	0.795047	0.173511
	C9246	C	0.626453	0.711848	0.327075
	C9247	C	0.688933	0.774549	0.327488
	C9248	C	0.626440	0.711879	0.172582
	C9249	C	0.688904	0.774669	0.172550
	C9250	C	0.664601	0.732936	0.327191
	C9251	C	0.727090	0.795319	0.327374
	C9252	C	0.643567	0.864196	0.499897
	C9253	C	0.696138	0.732091	0.000920
	C9254	C	0.663809	0.794308	0.500534
	C9255	C	0.726197	0.742507	0.000736
	C9256	C	0.660212	0.730392	0.250329
	C9257	C	0.722677	0.792896	0.250398
	C9258	C	0.630511	0.716827	0.249745
	C9259	C	0.692987	0.779587	0.250074
	C9260	C	0.648717	0.846547	0.499989
	C9261	C	0.703758	0.734532	0.000724
	C9262	C	0.658690	0.812031	0.500460
	C9263	C	0.718487	0.741166	0.000386
	C9264	C	0.652605	0.727710	0.250263
	C9265	C	0.715085	0.790346	0.250469
	C9266	C	0.637863	0.721969	0.249790
	C9267	C	0.700345	0.784656	0.250331
	C9268	C	0.650783	0.836680	0.514229
	C9269	C	0.707600	0.736109	0.418229
	C9270	C	0.656182	0.821238	-0.025771
	C9271	C	0.714709	0.739389	-0.082249
	C9272	C	0.655647	0.819937	0.514430
	C9273	C	0.714744	0.739287	0.418479
	C9274	C	0.651304	0.837985	-0.025215
	C9275	C	0.707558	0.736235	-0.081863
	C9276	C	0.648819	0.726315	0.168148
	C9277	C	0.711227	0.789646	0.169142
	C9278	C	0.641596	0.723941	0.331684
	C9279	C	0.704142	0.785999	0.331811
	C9280	C	0.641668	0.723453	0.168062
	C9281	C	0.704066	0.786841	0.168934
	C9282	C	0.648758	0.726772	0.332044
	C9283	C	0.711313	0.788772	0.331856
	N9284	N	0.635969	0.889995	0.452491
	N9285	N	0.684627	0.734727	0.451484
	N9286	N	0.671376	0.768668	0.047458
	N9287	N	0.737664	0.737639	0.049849
	N9288	N	0.671460	0.768706	0.452516
	N9289	N	0.737689	0.737796	0.452751
	N9290	N	0.635859	0.889953	0.048559
	N9291	N	0.684622	0.734672	0.050115
	N9292	N	0.671168	0.736276	0.201965
	N9293	N	0.733668	0.798620	0.202359
	N9294	N	0.620593	0.703920	0.298041
	N9295	N	0.683078	0.766619	0.298034
	N9296	N	0.620584	0.703892	0.201778
	N9297	N	0.683036	0.766692	0.201999
	N9298	N	0.671159	0.736485	0.298458
	N9299	N	0.733642	0.798757	0.299024
	H9300	H	0.641261	0.872188	0.850546
	H9301	H	0.692815	0.731675	0.849050
	H9302	H	0.665979	0.786658	0.651057
	H9303	H	0.729592	0.741957	0.653708
	H9304	H	0.666100	0.786895	0.849249
	H9305	H	0.729575	0.741907	0.849035
	H9306	H	0.641240	0.871665	0.650631
	H9307	H	0.692798	0.731934	0.652390
	H9308	H	0.663403	0.731837	0.598886
	H9309	H	0.725815	0.794737	0.600840
	H9310	H	0.627477	0.713685	0.901466
	H9311	H	0.689911	0.776119	0.902605
	H9312	H	0.627414	0.713905	0.598855
	H9313	H	0.689971	0.776098	0.600329
	H9314	H	0.663417	0.731628	0.900754
	H9315	H	0.725797	0.794696	0.900769
	H9316	H	0.649245	0.843931	1.047426
	H9317	H	0.704840	0.735815	1.149245
	H9318	H	0.658842	0.816334	0.474834
	H9319	H	0.717286	0.741605	0.649744
	H9320	H	0.657838	0.814502	1.047101
	H9321	H	0.717342	0.741057	1.149048
	H9322	H	0.650250	0.845856	0.474853
	H9323	H	0.704823	0.736002	0.649475
	H9324	H	0.651500	0.727176	0.604250
	H9325	H	0.713776	0.791187	0.605574
	H9326	H	0.638846	0.723172	0.895603
	H9327	H	0.701410	0.784806	0.897219
	H9328	H	0.638941	0.722240	0.604075
	H9329	H	0.701201	0.786186	0.605693
	H9330	H	0.651446	0.728116	0.895564
	H9331	H	0.713976	0.789879	0.896619
	Co9332	Co	0.739950	0.812028	0.625904
	Co9333	Co	0.677496	0.749626	0.625173
	Co9334	Co	0.615018	0.687245	0.875337
	Co9335	Co	0.677501	0.749529	0.875656
	C9336	C	0.640446	0.874846	0.924014
	C9337	C	0.691502	0.732504	0.923510
	C9338	C	0.666863	0.783810	0.577446
	C9339	C	0.730842	0.740951	0.579079
	C9340	C	0.666896	0.784048	0.922653
	C9341	C	0.730857	0.740799	0.923457
	C9342	C	0.640452	0.874540	0.577117
	C9343	C	0.691516	0.732715	0.578024
	C9344	C	0.664624	0.732528	0.672917
	C9345	C	0.726999	0.795316	0.674349
	C9346	C	0.626433	0.712053	0.827351
	C9347	C	0.688864	0.774488	0.828576
	C9348	C	0.626393	0.712099	0.672728
	C9349	C	0.688876	0.774508	0.673771
	C9350	C	0.664629	0.732497	0.827238
	C9351	C	0.727005	0.795346	0.827779
	C9352	C	0.643509	0.864326	1.000925
	C9353	C	0.696143	0.732124	0.500504
	C9354	C	0.663809	0.794435	0.999812
	C9355	C	0.726212	0.742609	0.501575
	C9356	C	0.660163	0.730300	0.750208
	C9357	C	0.722560	0.793189	0.751013
	C9358	C	0.630492	0.716976	0.750086
	C9359	C	0.692931	0.779557	0.751258
	C9360	C	0.648667	0.846707	1.000897
	C9361	C	0.703777	0.734523	0.500637
	C9362	C	0.658695	0.812196	1.000064
	C9363	C	0.718508	0.741208	0.501216
	C9364	C	0.652584	0.727643	0.749987
	C9365	C	0.714985	0.790596	0.751068
	C9366	C	0.637841	0.721906	0.750262
	C9367	C	0.700258	0.784691	0.751425
	C9368	C	0.651181	0.837677	1.026790
	C9369	C	0.707536	0.736668	1.083293
	C9370	C	0.656609	0.821907	0.486051
	C9371	C	0.714655	0.739973	0.583847
	C9372	C	0.656041	0.820932	1.026657
	C9373	C	0.714673	0.739832	1.083201
	C9374	C	0.651755	0.838678	0.485728
	C9375	C	0.707514	0.736830	0.583434
	C9376	C	0.648801	0.726188	0.668583
	C9377	C	0.711109	0.789753	0.669750
	C9378	C	0.641588	0.723946	0.831504
	C9379	C	0.704063	0.786183	0.832711
	C9380	C	0.641635	0.723391	0.668750
	C9381	C	0.703945	0.786862	0.670184
	C9382	C	0.648761	0.726748	0.831159
	C9383	C	0.711224	0.789008	0.832582
	N9384	N	0.635881	0.890047	0.953259
	N9385	N	0.684614	0.734517	0.952100
	N9386	N	0.671414	0.768577	0.548326
	N9387	N	0.737695	0.737706	0.550246
	N9388	N	0.671387	0.768670	0.951695
	N9389	N	0.737705	0.737641	0.952530
	N9390	N	0.635944	0.889900	0.548081
	N9391	N	0.684633	0.734652	0.549429
	N9392	N	0.671160	0.735999	0.701534
	N9393	N	0.733551	0.798717	0.702904
	N9394	N	0.620560	0.704144	0.798247
	N9395	N	0.683045	0.766461	0.798981
	N9396	N	0.620519	0.704274	0.701937
	N9397	N	0.683062	0.766387	0.703027
	N9398	N	0.671164	0.736049	0.798206
	N9399	N	0.733563	0.798732	0.799367
	H9400	H	0.640127	0.979247	0.349718
	H9401	H	0.703943	0.934664	0.347898
	H9402	H	0.677075	0.989641	0.150627
	H9403	H	0.728610	0.849275	0.151653
	H9404	H	0.676977	0.988945	0.346176
	H9405	H	0.728638	0.849240	0.350512
	H9406	H	0.640294	0.980592	0.152413
	H9407	H	0.703754	0.934488	0.149927
	H9408	H	0.679794	0.945184	0.097871
	H9409	H	0.742467	1.007103	0.099219
	H9410	H	0.644020	0.926320	0.401386
	H9411	H	0.706475	0.989198	0.399543
	H9412	H	0.643896	0.927227	0.100039
	H9413	H	0.706511	0.988979	0.098275
	H9414	H	0.679840	0.945027	0.400807
	H9415	H	0.742337	1.007731	0.401836
	H9416	H	0.652216	0.982529	0.351758
	H9417	H	0.712346	0.907425	0.464500
	H9418	H	0.665124	0.984415	0.148195
	H9419	H	0.720072	0.876145	0.003725
	H9420	H	0.664766	0.987638	0.351205
	H9421	H	0.720933	0.877842	0.465523
	H9422	H	0.652624	0.979429	0.148166
	H9423	H	0.711537	0.905777	0.003247
	H9424	H	0.668593	0.934146	0.105701
	H9425	H	0.730995	0.998691	0.105171
	H9426	H	0.655665	0.933160	0.395415
	H9427	H	0.718449	0.992430	0.394804
	H9428	H	0.656059	0.929036	0.105578
	H9429	H	0.718357	0.993828	0.104233
	H9430	H	0.668239	0.938340	0.395420
	H9431	H	0.731023	0.997640	0.395933
	Co9432	Co	0.754867	1.033710	0.125107
	Co9433	Co	0.692329	0.971511	0.123509
	Co9434	Co	0.629841	0.908963	0.375951
	Co9435	Co	0.692369	0.971506	0.373795
	C9436	C	0.638900	0.980682	0.423886
	C9437	C	0.703044	0.937387	0.421763
	C9438	C	0.678381	0.988791	0.076721
	C9439	C	0.729424	0.846451	0.077786
	C9440	C	0.678280	0.988389	0.420819
	C9441	C	0.729398	0.846388	0.423862
	C9442	C	0.639004	0.981291	0.077970
	C9443	C	0.702894	0.937206	0.076030
	C9444	C	0.680858	0.946919	0.172046
	C9445	C	0.743454	1.008908	0.173270
	C9446	C	0.642765	0.925820	0.327953
	C9447	C	0.705249	0.988380	0.325943
	C9448	C	0.642696	0.926214	0.173191
	C9449	C	0.705266	0.988277	0.171788
	C9450	C	0.680928	0.946744	0.326933
	C9451	C	0.743404	1.009154	0.327876
	C9452	C	0.643571	0.979046	0.500908
	C9453	C	0.706001	0.926737	-0.000986
	C9454	C	0.673661	0.989237	0.498524
	C9455	C	0.726334	0.856847	0.000678
	C9456	C	0.676819	0.941845	0.249940
	C9457	C	0.739372	1.003999	0.250523
	C9458	C	0.647201	0.928227	0.250539
	C9459	C	0.709704	0.990436	0.248965
	C9460	C	0.651289	0.980330	0.500254
	C9461	C	0.711169	0.909056	-0.000584
	C9462	C	0.666037	0.986825	0.499293
	C9463	C	0.721167	0.874495	0.000414
	C9464	C	0.669483	0.936839	0.250502
	C9465	C	0.732024	0.998950	0.250550
	C9466	C	0.654747	0.930942	0.250478
	C9467	C	0.717298	0.993104	0.249311
	C9468	C	0.654996	0.982791	0.417484
	C9469	C	0.713992	0.900593	0.480079
	C9470	C	0.662396	0.984157	0.082096
	C9471	C	0.718404	0.882982	0.002102
	C9472	C	0.662149	0.985904	0.416999
	C9473	C	0.718874	0.883890	0.480482
	C9474	C	0.655234	0.981167	0.082165
	C9475	C	0.713537	0.899726	0.001699
	C9476	C	0.665807	0.933971	0.169511
	C9477	C	0.728246	0.997495	0.168984
	C9478	C	0.658437	0.933388	0.331331
	C9479	C	0.721129	0.993974	0.330891
	C9480	C	0.658636	0.931144	0.169763
	C9481	C	0.721090	0.994611	0.168423
	C9482	C	0.665617	0.936211	0.331424
	C9483	C	0.728296	0.996817	0.331588
	N9484	N	0.632070	0.984436	0.453046
	N9485	N	0.698428	0.952541	0.451033
	N9486	N	0.685269	0.986719	0.047815
	N9487	N	0.733945	0.831155	0.048718
	N9488	N	0.685167	0.986515	0.449308
	N9489	N	0.733903	0.831054	0.453217
	N9490	N	0.632155	0.984652	0.049470
	N9491	N	0.698359	0.952432	0.046559
	N9492	N	0.686703	0.954837	0.200875
	N9493	N	0.749285	1.016910	0.202296
	N9494	N	0.636222	0.922368	0.299301
	N9495	N	0.698682	0.984946	0.297121
	N9496	N	0.636150	0.922645	0.202384
	N9497	N	0.698702	0.984827	0.200381
	N9498	N	0.686762	0.954693	0.297231
	N9499	N	0.749231	1.017166	0.298510
	H9500	H	0.640163	0.979682	0.848335
	H9501	H	0.703855	0.934555	0.848100
	H9502	H	0.677057	0.989716	0.650972
	H9503	H	0.728546	0.849323	0.650958
	H9504	H	0.676972	0.988910	0.847312
	H9505	H	0.728593	0.849131	0.849458
	H9506	H	0.640294	0.980360	0.652850
	H9507	H	0.703566	0.934077	0.650202
	H9508	H	0.679663	0.945667	0.598779
	H9509	H	0.742409	1.007164	0.598031
	H9510	H	0.643934	0.927204	0.901275
	H9511	H	0.706407	0.989425	0.899048
	H9512	H	0.643979	0.926584	0.599372
	H9513	H	0.706414	0.989098	0.597844
	H9514	H	0.680134	0.944628	0.901148
	H9515	H	0.742294	1.007499	0.901495
	H9516	H	0.652342	0.982134	0.851120
	H9517	H	0.712170	0.907250	0.997060
	H9518	H	0.665141	0.984261	0.648026
	H9519	H	0.719954	0.876169	0.534741
	H9520	H	0.664885	0.987257	0.850791
	H9521	H	0.720751	0.877569	0.997090
	H9522	H	0.652652	0.979063	0.648844
	H9523	H	0.711329	0.905716	0.534017
	H9524	H	0.668604	0.933853	0.606827
	H9525	H	0.730915	0.999193	0.603980
	H9526	H	0.655725	0.932815	0.895942
	H9527	H	0.718390	0.992620	0.893280
	H9528	H	0.656035	0.928903	0.606583
	H9529	H	0.718296	0.994017	0.603631
	H9530	H	0.668292	0.938068	0.896131
	H9531	H	0.731009	0.997511	0.893590
	Co9532	Co	0.754871	1.033915	0.625182
	Co9533	Co	0.692251	0.971541	0.623091
	Co9534	Co	0.629836	0.909132	0.876286
	Co9535	Co	0.692378	0.971520	0.873866
	C9536	C	0.638946	0.980849	0.923089
	C9537	C	0.702959	0.937216	0.921693
	C9538	C	0.678309	0.988808	0.575983
	C9539	C	0.729368	0.846408	0.577573
	C9540	C	0.678352	0.988381	0.921405
	C9541	C	0.729404	0.846365	0.923504
	C9542	C	0.638968	0.981088	0.578712
	C9543	C	0.702844	0.937060	0.576447
	C9544	C	0.680778	0.946939	0.672435
	C9545	C	0.743431	1.009031	0.672185
	C9546	C	0.642726	0.926219	0.827658
	C9547	C	0.705225	0.988574	0.825223
	C9548	C	0.642776	0.925899	0.673679
	C9549	C	0.705229	0.988487	0.671272
	C9550	C	0.680976	0.946566	0.826878
	C9551	C	0.743357	1.009128	0.827026
	C9552	C	0.643634	0.979335	1.000212
	C9553	C	0.706033	0.926835	0.499168
	C9554	C	0.673731	0.989269	0.999180
	C9555	C	0.726305	0.856828	0.500477
	C9556	C	0.676831	0.941781	0.750368
	C9557	C	0.739333	1.004143	0.749249
	C9558	C	0.647150	0.928283	0.750838
	C9559	C	0.709664	0.990724	0.748255
	C9560	C	0.651338	0.980544	0.999639
	C9561	C	0.711175	0.909086	0.499351
	C9562	C	0.666095	0.986882	0.999420
	C9563	C	0.721171	0.874583	0.500084
	C9564	C	0.669493	0.936675	0.751152
	C9565	C	0.731995	0.999020	0.748613
	C9566	C	0.654761	0.930960	0.750999
	C9567	C	0.717246	0.993419	0.748293
	C9568	C	0.655084	0.982725	0.916951
	C9569	C	0.713906	0.900532	0.998046
	C9570	C	0.662370	0.984059	0.582201
	C9571	C	0.718317	0.882992	0.519327
	C9572	C	0.662243	0.985763	0.916800
	C9573	C	0.718763	0.883762	0.998381
	C9574	C	0.655223	0.980936	0.582732
	C9575	C	0.713457	0.899737	0.519047
	C9576	C	0.665820	0.933843	0.670575
	C9577	C	0.728207	0.997689	0.667761
	C9578	C	0.658496	0.933199	0.832123
	C9579	C	0.721100	0.994068	0.829292
	C9580	C	0.658682	0.930973	0.670377
	C9581	C	0.721032	0.994996	0.667600
	C9582	C	0.665649	0.935993	0.832174
	C9583	C	0.728265	0.996860	0.829506
	N9584	N	0.632112	0.984370	0.952154
	N9585	N	0.698392	0.952441	0.951030
	N9586	N	0.685189	0.986778	0.547306
	N9587	N	0.733891	0.831062	0.548689
	N9588	N	0.685247	0.986482	0.949934
	N9589	N	0.733944	0.831114	0.953204
	N9590	N	0.632112	0.984680	0.550479
	N9591	N	0.698318	0.952361	0.546945
	N9592	N	0.686657	0.954878	0.700863
	N9593	N	0.749282	1.016962	0.701790
	N9594	N	0.636182	0.922526	0.798845
	N9595	N	0.698679	0.984994	0.796462
	N9596	N	0.636206	0.922393	0.702016
	N9597	N	0.698701	0.984841	0.699963
	N9598	N	0.686789	0.954587	0.797001
	N9599	N	0.749220	1.017068	0.798045
	H9600	H	0.765183	0.104969	0.348112
	H9601	H	0.828823	0.059698	0.347836
	H9602	H	0.801981	0.114266	0.151070
	H9603	H	0.853344	-0.026023	0.151799
	H9604	H	0.802011	0.114078	0.347803
	H9605	H	0.853523	-0.026091	0.350424
	H9606	H	0.765158	0.104811	0.152316
	H9607	H	0.828630	0.059113	0.150474
	H9608	H	0.804849	0.070030	0.098669
	H9609	H	0.867270	0.132552	0.097570
	H9610	H	0.768939	0.051599	0.400873
	H9611	H	0.831416	0.114282	0.399872
	H9612	H	0.768926	0.051642	0.099285
	H9613	H	0.831524	0.113180	0.099090
	H9614	H	0.804863	0.070020	0.401968
	H9615	H	0.867405	0.132439	0.401217
	H9616	H	0.777468	0.105421	0.647860
	H9617	H	0.836231	0.030231	0.555567
	H9618	H	0.789961	0.110829	0.148380
	H9619	H	0.845640	0.002428	0.068141
	H9620	H	0.789957	0.110693	0.647584
	H9621	H	0.844749	0.000471	0.557014
	H9622	H	0.777464	0.105633	0.149290
	H9623	H	0.837040	0.032057	0.067005
	H9624	H	0.793433	0.060808	0.104913
	H9625	H	0.855995	0.123067	0.395502
	H9626	H	0.780842	0.056013	0.395526
	H9627	H	0.843381	0.118131	0.104497
	H9628	H	0.780898	0.055715	0.104656
	H9629	H	0.843430	0.117737	0.395435
	H9630	H	0.793389	0.061103	0.395946
	H9631	H	0.855940	0.123314	0.104559
	Co9632	Co	0.879807	0.158914	0.123907
	Co9633	Co	0.817293	0.096332	0.124211
	Co9634	Co	0.754877	0.033870	0.375662
	Co9635	Co	0.817324	0.096491	0.375044
	C9636	C	0.763951	0.105986	0.422677
	C9637	C	0.827998	0.062356	0.422002
	C9638	C	0.803310	0.113444	0.077092
	C9639	C	0.854295	-0.028819	0.078141
	C9640	C	0.803321	0.113479	0.422001
	C9641	C	0.854393	-0.028765	0.424092
	C9642	C	0.763909	0.105836	0.078152
	C9643	C	0.827918	0.062036	0.076587
	C9644	C	0.805906	0.071618	0.172850
	C9645	C	0.868349	0.134246	0.171996
	C9646	C	0.767743	0.050874	0.327170
	C9647	C	0.830220	0.113449	0.326428
	C9648	C	0.767731	0.050853	0.172833
	C9649	C	0.830278	0.112901	0.172696
	C9650	C	0.805928	0.071660	0.327356
	C9651	C	0.868432	0.134052	0.326789
	C9652	C	0.768590	0.104078	0.499843
	C9653	C	0.831064	0.051752	-0.000486
	C9654	C	0.798707	0.114100	0.499540
	C9655	C	0.851295	-0.018226	0.000892
	C9656	C	0.801827	0.066652	0.250306
	C9657	C	0.864317	0.129163	0.249654
	C9658	C	0.772205	0.053059	0.249997
	C9659	C	0.834697	0.115333	0.249812
	C9660	C	0.776302	0.105314	0.499368
	C9661	C	0.836186	0.034001	-0.000528
	C9662	C	0.791046	0.111762	0.499321
	C9663	C	0.846160	-0.000502	0.000281
	C9664	C	0.794515	0.061578	0.250389
	C9665	C	0.857004	0.123871	0.250098
	C9666	C	0.779756	0.055733	0.250068
	C9667	C	0.842281	0.117962	0.250072
	C9668	C	0.780135	0.106671	0.581867
	C9669	C	0.838374	0.024345	0.531074
	C9670	C	0.787282	0.109829	0.082667
	C9671	C	0.843699	0.008634	0.038089
	C9672	C	0.787275	0.109766	0.581713
	C9673	C	0.843217	0.007538	0.531824
	C9674	C	0.780112	0.106799	0.083190
	C9675	C	0.838846	0.025395	0.037788
	C9676	C	0.790751	0.059754	0.169138
	C9677	C	0.853275	0.122033	0.331232
	C9678	C	0.783545	0.057088	0.331392
	C9679	C	0.846091	0.119184	0.168855
	C9680	C	0.783570	0.056921	0.169012
	C9681	C	0.846118	0.119082	0.331190
	C9682	C	0.790726	0.059911	0.331635
	C9683	C	0.853243	0.122134	0.168870
	N9684	N	0.757120	0.109559	0.452012
	N9685	N	0.823448	0.077596	0.451812
	N9686	N	0.810187	0.111438	0.048780
	N9687	N	0.858871	-0.044008	0.049181
	N9688	N	0.810210	0.111529	0.450694
	N9689	N	0.858945	-0.043912	0.453679
	N9690	N	0.757065	0.109449	0.049525
	N9691	N	0.823410	0.077377	0.047303
	N9692	N	0.811740	0.079533	0.201572
	N9693	N	0.874218	0.142163	0.201040
	N9694	N	0.761217	0.047268	0.298399
	N9695	N	0.823663	0.109898	0.297922
	N9696	N	0.761215	0.047205	0.201741
	N9697	N	0.823702	0.109612	0.201118
	N9698	N	0.811751	0.079610	0.298171
	N9699	N	0.874265	0.142046	0.297185
	H9700	H	0.765164	0.104756	0.849400
	H9701	H	0.828839	0.059635	0.849197
	H9702	H	0.802016	0.114247	0.652165
	H9703	H	0.853625	-0.025491	0.651379
	H9704	H	0.801993	0.113887	0.847191
	H9705	H	0.853813	-0.025391	0.850349
	H9706	H	0.765261	0.104758	0.652080
	H9707	H	0.828730	0.059156	0.650027
	H9708	H	0.804798	0.070326	0.598134
	H9709	H	0.867334	0.132405	0.598489
	H9710	H	0.769035	0.050870	0.901327
	H9711	H	0.831433	0.114116	0.900562
	H9712	H	0.768889	0.051471	0.599968
	H9713	H	0.831413	0.114388	0.599086
	H9714	H	0.804945	0.069904	0.900719
	H9715	H	0.867433	0.132460	0.901529
	H9716	H	0.777340	0.105773	0.852471
	H9717	H	0.836688	0.031209	0.931567
	H9718	H	0.789944	0.111003	0.351417
	H9719	H	0.846136	0.003516	0.444095
	H9720	H	0.789877	0.110885	0.851102
	H9721	H	0.845316	0.001626	0.932153
	H9722	H	0.777408	0.105667	0.351362
	H9723	H	0.837572	0.033014	0.442838
	H9724	H	0.793480	0.060903	0.895457
	H9725	H	0.855953	0.123246	0.603707
	H9726	H	0.780871	0.055465	0.605794
	H9727	H	0.843342	0.118827	0.896020
	H9728	H	0.780938	0.055541	0.895185
	H9729	H	0.843385	0.118253	0.604201
	H9730	H	0.793417	0.060967	0.605084
	H9731	H	0.855955	0.123522	0.896297
	Co9732	Co	0.879832	0.158831	0.623955
	Co9733	Co	0.817350	0.096560	0.624223
	Co9734	Co	0.754771	0.033810	0.875598
	Co9735	Co	0.817350	0.096501	0.875166
	C9736	C	0.763914	0.105804	0.923473
	C9737	C	0.828011	0.062270	0.922608
	C9738	C	0.803327	0.113443	0.577224
	C9739	C	0.854429	-0.028464	0.577992
	C9740	C	0.803314	0.113202	0.921965
	C9741	C	0.854524	-0.028491	0.923971
	C9742	C	0.763994	0.105804	0.577696
	C9743	C	0.827960	0.062134	0.576353
	C9744	C	0.805885	0.071849	0.672322
	C9745	C	0.868389	0.134168	0.672457
	C9746	C	0.767801	0.050375	0.827502
	C9747	C	0.830235	0.113529	0.826643
	C9748	C	0.767756	0.050675	0.673810
	C9749	C	0.830246	0.113616	0.672807
	C9750	C	0.805933	0.071656	0.826840
	C9751	C	0.868452	0.134129	0.827355
	C9752	C	0.768552	0.104058	1.000848
	C9753	C	0.831084	0.051815	0.498881
	C9754	C	0.798667	0.114016	0.999525
	C9755	C	0.851300	-0.018164	0.500731
	C9756	C	0.801846	0.066798	0.749518
	C9757	C	0.864373	0.129204	0.750078
	C9758	C	0.772208	0.052697	0.750600
	C9759	C	0.834677	0.115834	0.749943
	C9760	C	0.776261	0.105321	1.000865
	C9761	C	0.836198	0.034083	0.499235
	C9762	C	0.791032	0.111681	0.999871
	C9763	C	0.846152	-0.000502	0.500510
	C9764	C	0.794504	0.061643	0.749999
	C9765	C	0.857024	0.124103	0.750167
	C9766	C	0.779795	0.055487	0.750532
	C9767	C	0.842263	0.118484	0.750105
	C9768	C	0.780062	0.106820	0.917897
	C9769	C	0.838655	0.024842	0.961488
	C9770	C	0.787247	0.109959	0.417038
	C9771	C	0.843948	0.009123	0.468617
	C9772	C	0.787220	0.109870	0.917435
	C9773	C	0.843516	0.008075	0.961929
	C9774	C	0.780103	0.106883	0.416920
	C9775	C	0.839142	0.025969	0.467995
	C9776	C	0.790770	0.059809	0.831348
	C9777	C	0.853245	0.122272	0.668584
	C9778	C	0.783592	0.056775	0.669488
	C9779	C	0.846072	0.119734	0.831555
	C9780	C	0.783628	0.056810	0.831376
	C9781	C	0.846085	0.119485	0.668620
	C9782	C	0.790731	0.059776	0.669196
	C9783	C	0.853233	0.122556	0.831693
	N9784	N	0.757059	0.109423	0.952235
	N9785	N	0.823463	0.077527	0.951862
	N9786	N	0.810222	0.111556	0.548503
	N9787	N	0.858962	-0.043736	0.549113
	N9788	N	0.810182	0.111309	0.950818
	N9789	N	0.859002	-0.043836	0.953522
	N9790	N	0.757138	0.109486	0.549136
	N9791	N	0.823441	0.077466	0.547563
	N9792	N	0.811736	0.079818	0.701450
	N9793	N	0.874263	0.142075	0.701303
	N9794	N	0.761222	0.047004	0.798992
	N9795	N	0.823691	0.109992	0.797934
	N9796	N	0.761196	0.047217	0.702442
	N9797	N	0.823690	0.110069	0.701310
	N9798	N	0.811769	0.079689	0.797675
	N9799	N	0.874290	0.142125	0.798020
	H9800	H	0.760451	0.198339	0.347921
	H9801	H	0.827704	0.167428	0.347198
	H9802	H	0.797290	0.207435	0.151709
	H9803	H	0.864550	0.176690	0.151434
	H9804	H	0.797264	0.207526	0.348452
	H9805	H	0.864517	0.176413	0.347061
	H9806	H	0.760536	0.198402	0.152170
	H9807	H	0.827718	0.167092	0.151712
	H9808	H	0.799494	0.163590	0.098170
	H9809	H	0.861981	0.226278	0.097846
	H9810	H	0.762988	0.148811	0.402398
	H9811	H	0.825499	0.211333	0.401110
	H9812	H	0.762974	0.148816	0.098882
	H9813	H	0.825498	0.211159	0.097468
	H9814	H	0.799481	0.163657	0.401998
	H9815	H	0.861953	0.226642	0.401882
	H9816	H	0.772547	0.201585	0.648292
	H9817	H	0.839959	0.167928	0.647040
	H9818	H	0.785116	0.206440	0.148594
	H9819	H	0.852446	0.173351	0.147726
	H9820	H	0.785104	0.206651	0.648178
	H9821	H	0.852516	0.173195	0.646547
	H9822	H	0.772566	0.201530	0.148423
	H9823	H	0.839919	0.168093	0.148030
	H9824	H	0.787510	0.158324	0.101230
	H9825	H	0.850060	0.220861	0.101132
	H9826	H	0.774927	0.154217	0.399898
	H9827	H	0.837366	0.216940	0.398185
	H9828	H	0.774824	0.154699	0.101671
	H9829	H	0.837417	0.217041	0.100409
	H9830	H	0.787596	0.157805	0.399529
	H9831	H	0.850049	0.220612	0.398654
	Co9832	Co	0.875057	0.249688	0.123858
	Co9833	Co	0.812540	0.187278	0.124530
	Co9834	Co	0.750014	0.125155	0.376368
	Co9835	Co	0.812449	0.187404	0.374934
	C9836	C	0.759163	0.199072	0.422623
	C9837	C	0.826458	0.168363	0.421551
	C9838	C	0.798553	0.206463	0.077405
	C9839	C	0.865827	0.175912	0.076776
	C9840	C	0.798514	0.206513	0.422319
	C9841	C	0.865821	0.175728	0.421220
	C9842	C	0.759203	0.199131	0.077673
	C9843	C	0.826480	0.168293	0.077304
	C9844	C	0.800596	0.164990	0.172652
	C9845	C	0.863092	0.227625	0.172393
	C9846	C	0.761871	0.147550	0.328032
	C9847	C	0.824371	0.209853	0.326965
	C9848	C	0.761875	0.147435	0.173443
	C9849	C	0.824384	0.209772	0.172073
	C9850	C	0.800572	0.165015	0.327394
	C9851	C	0.863101	0.227758	0.327018
	C9852	C	0.763793	0.198310	0.499958
	C9853	C	0.831096	0.166493	-0.000245
	C9854	C	0.793900	0.208234	0.499854
	C9855	C	0.861199	0.176507	-0.000884
	C9856	C	0.796286	0.161380	0.249978
	C9857	C	0.858784	0.224140	0.249930
	C9858	C	0.766169	0.151038	0.250671
	C9859	C	0.828689	0.213443	0.249624
	C9860	C	0.771465	0.200574	0.500023
	C9861	C	0.838810	0.167625	-0.000415
	C9862	C	0.786198	0.206987	0.500025
	C9863	C	0.853574	0.174042	-0.000854
	C9864	C	0.788709	0.158179	0.250191
	C9865	C	0.851229	0.220820	0.249919
	C9866	C	0.773748	0.154223	0.250703
	C9867	C	0.836248	0.216717	0.249496
	C9868	C	0.775262	0.202480	0.582566
	C9869	C	0.842634	0.169232	0.581493
	C9870	C	0.782414	0.205523	0.082762
	C9871	C	0.849779	0.172265	0.081929
	C9872	C	0.782405	0.205536	0.582558
	C9873	C	0.849788	0.172197	0.581394
	C9874	C	0.775257	0.202544	0.082689
	C9875	C	0.842616	0.169202	0.082175
	C9876	C	0.784826	0.157339	0.167387
	C9877	C	0.847350	0.219883	0.167006
	C9878	C	0.777621	0.155159	0.333784
	C9879	C	0.840100	0.217706	0.332192
	C9880	C	0.777589	0.155338	0.167602
	C9881	C	0.840104	0.217788	0.166756
	C9882	C	0.784869	0.157080	0.333385
	C9883	C	0.847353	0.219717	0.332577
	N9884	N	0.752274	0.201125	0.451144
	N9885	N	0.819623	0.171994	0.450435
	N9886	N	0.805416	0.202850	0.048597
	N9887	N	0.872717	0.174015	0.048371
	N9888	N	0.805367	0.202964	0.451021
	N9889	N	0.872718	0.173748	0.450150
	N9890	N	0.752323	0.201061	0.048928
	N9891	N	0.819655	0.171929	0.048777
	N9892	N	0.806834	0.171034	0.201499
	N9893	N	0.869335	0.233650	0.201167
	N9894	N	0.755634	0.141478	0.299135
	N9895	N	0.818159	0.203769	0.298254
	N9896	N	0.755643	0.141399	0.202237
	N9897	N	0.818162	0.203752	0.201251
	N9898	N	0.806820	0.171025	0.298482
	N9899	N	0.869317	0.233786	0.298234
	H9900	H	0.760495	0.198666	0.848024
	H9901	H	0.827707	0.167575	0.847815
	H9902	H	0.797282	0.207469	0.651709
	H9903	H	0.864520	0.176519	0.650775
	H9904	H	0.797248	0.207524	0.847661
	H9905	H	0.864538	0.176541	0.846769
	H9906	H	0.760484	0.198484	0.651807
	H9907	H	0.827792	0.167652	0.650715
	H9908	H	0.799572	0.163490	0.597551
	H9909	H	0.862019	0.226166	0.597940
	H9910	H	0.763012	0.148820	0.903165
	H9911	H	0.825510	0.211077	0.901922
	H9912	H	0.763034	0.148602	0.599284
	H9913	H	0.825523	0.211436	0.598464
	H9914	H	0.799613	0.163539	0.900908
	H9915	H	0.862082	0.226176	0.901120
	H9916	H	0.772484	0.202105	0.851457
	H9917	H	0.839924	0.167765	0.851018
	H9918	H	0.785049	0.206840	0.351733
	H9919	H	0.852505	0.173148	0.351336
	H9920	H	0.785015	0.207217	0.851832
	H9921	H	0.852440	0.173048	0.850601
	H9922	H	0.772534	0.201533	0.351514
	H9923	H	0.839930	0.168069	0.351115
	H9924	H	0.787662	0.158265	0.899068
	H9925	H	0.850057	0.220636	0.600641
	H9926	H	0.774950	0.154309	0.601808
	H9927	H	0.837472	0.216630	0.898958
	H9928	H	0.774998	0.154955	0.899365
	H9929	H	0.837412	0.216927	0.601244
	H9930	H	0.787635	0.157744	0.601006
	H9931	H	0.850132	0.220409	0.898937
	Co9932	Co	0.874983	0.250141	0.623828
	Co9933	Co	0.812556	0.187467	0.623818
	Co9934	Co	0.750017	0.125060	0.876358
	Co9935	Co	0.812514	0.187423	0.875226
	C9936	C	0.759183	0.199265	0.922444
	C9937	C	0.826457	0.168418	0.922375
	C9938	C	0.798528	0.206511	0.577095
	C9939	C	0.865826	0.175882	0.576531
	C9940	C	0.798551	0.206420	0.922440
	C9941	C	0.865831	0.175843	0.921590
	C9942	C	0.759177	0.199071	0.577388
	C9943	C	0.826494	0.168504	0.576453
	C9944	C	0.800685	0.164969	0.672011
	C9945	C	0.863117	0.227683	0.672348
	C9946	C	0.761936	0.147419	0.828471
	C9947	C	0.824396	0.209853	0.827388
	C9948	C	0.761936	0.147376	0.673634
	C9949	C	0.824426	0.209946	0.672683
	C9950	C	0.800714	0.164914	0.826846
	C9951	C	0.863162	0.227620	0.827123
	C9952	C	0.763819	0.198532	0.999991
	C9953	C	0.831095	0.166663	0.499097
	C9954	C	0.793923	0.208238	0.999874
	C9955	C	0.861211	0.176485	0.499016
	C9956	C	0.796394	0.161296	0.749458
	C9957	C	0.858831	0.224050	0.749940
	C9958	C	0.766254	0.151011	0.750948
	C9959	C	0.828712	0.213475	0.750312
	C9960	C	0.771460	0.200861	0.999918
	C9961	C	0.838813	0.167764	0.499200
	C9962	C	0.786209	0.207141	0.999984
	C9963	C	0.853557	0.174115	0.499122
	C9964	C	0.788813	0.158168	0.749915
	C9965	C	0.851261	0.220798	0.749894
	C9966	C	0.773810	0.154293	0.750610
	C9967	C	0.836288	0.216703	0.750326
	C9968	C	0.775203	0.202865	0.917260
	C9969	C	0.842623	0.168993	0.916733
	C9970	C	0.782381	0.205569	0.417493
	C9971	C	0.849786	0.172205	0.416813
	C9972	C	0.782353	0.205913	0.917493
	C9973	C	0.849779	0.172048	0.916678
	C9974	C	0.775239	0.202496	0.417314
	C9975	C	0.842630	0.169190	0.416810
	C9976	C	0.784959	0.157367	0.833015
	C9977	C	0.847376	0.219842	0.667041
	C9978	C	0.777672	0.155114	0.667613
	C9979	C	0.840175	0.217556	0.833087
	C9980	C	0.777698	0.155480	0.833168
	C9981	C	0.840134	0.217845	0.667274
	C9982	C	0.784933	0.157050	0.667306
	C9983	C	0.847421	0.219621	0.832774
	N9984	N	0.752311	0.201111	0.951204
	N9985	N	0.819644	0.172054	0.951495
	N9986	N	0.805380	0.202945	0.548233
	N9987	N	0.872718	0.173800	0.547803
	N9988	N	0.805408	0.202867	0.951247
	N9989	N	0.872726	0.173906	0.950145
	N9990	N	0.752277	0.201146	0.549011
	N9991	N	0.819647	0.172034	0.547795
	N9992	N	0.806918	0.171021	0.700713
	N9993	N	0.869358	0.233731	0.700961
	N9994	N	0.755720	0.141342	0.799679
	N9995	N	0.818173	0.203809	0.798297
	N9996	N	0.755719	0.141320	0.702427
	N9997	N	0.818192	0.203822	0.701265
	N9998	N	0.806932	0.170992	0.797800
	N9999	N	0.869391	0.233644	0.797983
	H10000	H	0.771304	0.400618	0.350368
	H10001	H	0.822877	0.260610	0.347750
	H10002	H	0.796410	0.315996	0.151222
	H10003	H	0.859828	0.269828	0.152363
	H10004	H	0.796198	0.315606	0.349472
	H10005	H	0.859699	0.270524	0.348475
	H10006	H	0.771487	0.400895	0.150862
	H10007	H	0.823015	0.260985	0.152298
	H10008	H	0.793501	0.260841	0.098548
	H10009	H	0.855894	0.323900	0.100066
	H10010	H	0.757586	0.242630	0.401134
	H10011	H	0.820062	0.304979	0.402523
	H10012	H	0.757595	0.242204	0.098019
	H10013	H	0.820102	0.305289	0.100144
	H10014	H	0.793451	0.260555	0.399420
	H10015	H	0.856008	0.324115	0.401038
	H10016	H	0.779573	0.373025	0.427122
	H10017	H	0.834939	0.264172	0.648315
	H10018	H	0.788432	0.344087	-0.000439
	H10019	H	0.847655	0.269255	-0.148344
	H10020	H	0.788138	0.343449	0.427143
	H10021	H	0.847470	0.269348	0.647886
	H10022	H	0.779806	0.373590	-0.000139
	H10023	H	0.835096	0.264230	-0.148511
	H10024	H	0.781511	0.256801	0.102871
	H10025	H	0.844003	0.319481	0.105051
	H10026	H	0.769108	0.251202	0.395501
	H10027	H	0.831492	0.314240	0.397881
	H10028	H	0.768934	0.251753	0.103653
	H10029	H	0.831463	0.314140	0.105613
	H10030	H	0.781692	0.256143	0.395404
	H10031	H	0.844072	0.319434	0.397068
	Co10032	Co	0.870084	0.341330	0.124254
	Co10033	Co	0.807673	0.278605	0.125001
	Co10034	Co	0.745178	0.216101	0.375623
	Co10035	Co	0.807619	0.278401	0.375280
	C10036	C	0.770553	0.403598	0.424078
	C10037	C	0.821573	0.261423	0.422390
	C10038	C	0.797172	0.313057	0.077278
	C10039	C	0.861082	0.268987	0.077752
	C10040	C	0.797028	0.312801	0.423397
	C10041	C	0.860965	0.269402	0.422307
	C10042	C	0.770664	0.403640	0.077418
	C10043	C	0.821726	0.261901	0.077474
	C10044	C	0.794763	0.261586	0.171863
	C10045	C	0.857155	0.324505	0.173578
	C10046	C	0.756584	0.240781	0.327195
	C10047	C	0.819014	0.303324	0.328654
	C10048	C	0.756577	0.240659	0.172488
	C10049	C	0.819047	0.303492	0.174182
	C10050	C	0.794728	0.261456	0.325971
	C10051	C	0.857190	0.324623	0.327091
	C10052	C	0.773701	0.393238	0.500993
	C10053	C	0.826340	0.261221	-0.000281
	C10054	C	0.793948	0.323239	0.500290
	C10055	C	0.856462	0.270887	0.000254
	C10056	C	0.790300	0.259210	0.248643
	C10057	C	0.852724	0.322225	0.250620
	C10058	C	0.760640	0.245758	0.249777
	C10059	C	0.823095	0.308401	0.251677
	C10060	C	0.778833	0.375519	0.500839
	C10061	C	0.833980	0.263580	-0.000383
	C10062	C	0.788812	0.340911	0.500374
	C10063	C	0.848738	0.269837	0.000083
	C10064	C	0.782727	0.256493	0.248953
	C10065	C	0.845137	0.319605	0.250929
	C10066	C	0.767992	0.250746	0.249608
	C10067	C	0.830421	0.313581	0.251713
	C10068	C	0.781415	0.366644	0.459268
	C10069	C	0.837634	0.265179	0.582191
	C10070	C	0.786436	0.350231	-0.000026
	C10071	C	0.844945	0.268258	-0.082693
	C10072	C	0.786257	0.349829	0.459197
	C10073	C	0.844788	0.268256	0.582076
	C10074	C	0.781558	0.366955	-0.000139
	C10075	C	0.837781	0.265298	-0.082786
	C10076	C	0.778877	0.255467	0.167644
	C10077	C	0.841325	0.318309	0.169663
	C10078	C	0.771810	0.252313	0.330997
	C10079	C	0.834188	0.315383	0.333081
	C10080	C	0.771712	0.252651	0.167863
	C10081	C	0.834175	0.315333	0.170028
	C10082	C	0.778981	0.255145	0.330815
	C10083	C	0.841342	0.318382	0.332668
	N10084	N	0.766047	0.418884	0.453166
	N10085	N	0.814678	0.263312	0.451091
	N10086	N	0.801628	0.297644	0.047897
	N10087	N	0.867923	0.265272	0.048592
	N10088	N	0.801582	0.297558	0.452336
	N10089	N	0.867810	0.265804	0.450931
	N10090	N	0.766114	0.418939	0.048188
	N10091	N	0.814830	0.263733	0.049014
	N10092	N	0.801291	0.265178	0.201132
	N10093	N	0.863693	0.328108	0.201701
	N10094	N	0.750712	0.232868	0.297973
	N10095	N	0.813176	0.295323	0.298909
	N10096	N	0.750727	0.232766	0.201853
	N10097	N	0.813207	0.295433	0.202668
	N10098	N	0.801266	0.265057	0.297797
	N10099	N	0.863724	0.328166	0.298307
	H10100	H	0.771307	0.400700	0.849732
	H10101	H	0.823011	0.260948	0.848299
	H10102	H	0.796369	0.315929	0.650940
	H10103	H	0.859742	0.269937	0.651041
	H10104	H	0.796161	0.315640	0.849144
	H10105	H	0.859801	0.270115	0.847894
	H10106	H	0.771501	0.401086	0.651998
	H10107	H	0.822898	0.260740	0.651728
	H10108	H	0.793512	0.261177	0.599831
	H10109	H	0.855907	0.323834	0.599245
	H10110	H	0.757634	0.242279	0.902453
	H10111	H	0.820020	0.305067	0.902073
	H10112	H	0.757558	0.242861	0.599469
	H10113	H	0.820121	0.304872	0.598733
	H10114	H	0.793546	0.260884	0.900820
	H10115	H	0.856046	0.323601	0.899762
	H10116	H	0.779252	0.372388	1.001402
	H10117	H	0.835072	0.264325	1.148333
	H10118	H	0.788102	0.343466	0.574494
	H10119	H	0.847530	0.269263	0.351075
	H10120	H	0.787922	0.342897	1.001455
	H10121	H	0.847596	0.269420	1.148579
	H10122	H	0.779544	0.373112	0.574536
	H10123	H	0.834981	0.264235	0.351341
	H10124	H	0.781602	0.256824	0.895357
	H10125	H	0.844031	0.319670	0.605659
	H10126	H	0.769046	0.251237	0.605825
	H10127	H	0.831562	0.313816	0.895014
	H10128	H	0.769054	0.251632	0.895766
	H10129	H	0.831451	0.314376	0.605847
	H10130	H	0.781602	0.256511	0.606001
	H10131	H	0.844128	0.319030	0.894742
	Co10132	Co	0.870113	0.341405	0.624657
	Co10133	Co	0.807624	0.278591	0.624907
	Co10134	Co	0.745162	0.216026	0.875515
	Co10135	Co	0.807626	0.278580	0.875362
	C10136	C	0.770568	0.403541	0.923459
	C10137	C	0.821707	0.261855	0.922530
	C10138	C	0.797100	0.312939	0.577058
	C10139	C	0.860971	0.269118	0.577117
	C10140	C	0.797068	0.312882	0.922856
	C10141	C	0.861078	0.269031	0.922715
	C10142	C	0.770652	0.403820	0.577912
	C10143	C	0.821611	0.261548	0.577075
	C10144	C	0.794720	0.261758	0.673455
	C10145	C	0.857175	0.324441	0.672752
	C10146	C	0.756562	0.240873	0.827949
	C10147	C	0.819006	0.303433	0.827678
	C10148	C	0.756577	0.240894	0.673386
	C10149	C	0.819073	0.303315	0.673054
	C10150	C	0.794740	0.261543	0.827287
	C10151	C	0.857231	0.324330	0.826342
	C10152	C	0.773707	0.393154	1.000289
	C10153	C	0.826214	0.260844	0.499602
	C10154	C	0.794044	0.323430	1.000177
	C10155	C	0.856344	0.270990	0.499782
	C10156	C	0.790303	0.259398	0.750409
	C10157	C	0.852767	0.322160	0.749648
	C10158	C	0.760616	0.245828	0.750800
	C10159	C	0.823136	0.308258	0.750548
	C10160	C	0.778846	0.375488	1.000155
	C10161	C	0.833865	0.263226	0.499772
	C10162	C	0.788853	0.341022	1.000303
	C10163	C	0.848633	0.269728	0.499601
	C10164	C	0.782712	0.256692	0.750384
	C10165	C	0.845193	0.319333	0.750029
	C10166	C	0.767961	0.250914	0.750758
	C10167	C	0.830479	0.313325	0.750462
	C10168	C	0.781256	0.366259	1.000812
	C10169	C	0.837755	0.265397	1.082408
	C10170	C	0.786244	0.349844	0.542060
	C10171	C	0.844828	0.268231	0.417026
	C10172	C	0.786139	0.349548	1.000874
	C10173	C	0.844905	0.268407	1.082753
	C10174	C	0.781403	0.366664	0.542090
	C10175	C	0.837680	0.265066	0.417262
	C10176	C	0.778901	0.255557	0.831325
	C10177	C	0.841353	0.318263	0.669338
	C10178	C	0.771749	0.252480	0.669825
	C10179	C	0.834254	0.315028	0.831162
	C10180	C	0.771746	0.252728	0.831646
	C10181	C	0.834197	0.315346	0.669677
	C10182	C	0.778902	0.255323	0.669703
	C10183	C	0.841412	0.317916	0.830989
	N10184	N	0.766055	0.418830	0.952726
	N10185	N	0.814819	0.263727	0.951167
	N10186	N	0.801624	0.297649	0.547803
	N10187	N	0.867806	0.265587	0.548328
	N10188	N	0.801564	0.297569	0.952119
	N10189	N	0.867926	0.265403	0.951275
	N10190	N	0.766099	0.418997	0.548552
	N10191	N	0.814708	0.263435	0.548925
	N10192	N	0.801283	0.265179	0.702042
	N10193	N	0.863724	0.328111	0.701154
	N10194	N	0.750692	0.232964	0.798658
	N10195	N	0.813163	0.295471	0.798219
	N10196	N	0.750711	0.232947	0.702069
	N10197	N	0.813201	0.295437	0.701955
	N10198	N	0.801291	0.265094	0.798518
	N10199	N	0.863757	0.328039	0.797707
	H10200	H	0.770359	0.508140	0.348657
	H10201	H	0.833806	0.463513	0.349175
	H10202	H	0.807087	0.518620	0.150778
	H10203	H	0.858784	0.378430	0.151011
	H10204	H	0.807097	0.518208	0.347516
	H10205	H	0.858865	0.378921	0.349653
	H10206	H	0.770370	0.508488	0.152635
	H10207	H	0.833656	0.463392	0.150482
	H10208	H	0.809895	0.474555	0.098194
	H10209	H	0.872549	0.536254	0.098548
	H10210	H	0.774057	0.455872	0.400981
	H10211	H	0.836599	0.518352	0.400276
	H10212	H	0.773999	0.455608	0.100017
	H10213	H	0.836602	0.517753	0.098829
	H10214	H	0.810032	0.474323	0.401689
	H10215	H	0.872539	0.536265	0.402247
	H10216	H	0.782659	0.508803	0.649588
	H10217	H	0.842720	0.437421	0.522408
	H10218	H	0.794944	0.515848	-0.149431
	H10219	H	0.850769	0.406603	-0.022694
	H10220	H	0.795178	0.514086	0.649453
	H10221	H	0.851244	0.407726	0.522750
	H10222	H	0.782449	0.510338	-0.149390
	H10223	H	0.842151	0.436090	-0.023329
	H10224	H	0.798547	0.464717	0.104053
	H10225	H	0.861162	0.527000	0.395426
	H10226	H	0.785919	0.460658	0.397303
	H10227	H	0.848505	0.522634	0.104531
	H10228	H	0.785989	0.459474	0.104743
	H10229	H	0.848547	0.521852	0.395339
	H10230	H	0.798460	0.465919	0.396850
	H10231	H	0.861106	0.527523	0.105028
	Co10232	Co	0.884977	0.562848	0.125342
	Co10233	Co	0.822374	0.500784	0.123905
	Co10234	Co	0.759966	0.437887	0.375973
	Co10235	Co	0.822462	0.500850	0.375172
	C10236	C	0.769090	0.509223	0.423122
	C10237	C	0.833012	0.466387	0.422736
	C10238	C	0.808419	0.517838	0.076763
	C10239	C	0.859552	0.375651	0.076866
	C10240	C	0.808411	0.517570	0.421830
	C10241	C	0.859581	0.375947	0.423272
	C10242	C	0.769105	0.509215	0.078150
	C10243	C	0.832932	0.466343	0.076938
	C10244	C	0.810947	0.476169	0.172485
	C10245	C	0.873539	0.538056	0.172892
	C10246	C	0.772845	0.455003	0.327484
	C10247	C	0.835381	0.517562	0.326539
	C10248	C	0.772823	0.454918	0.173890
	C10249	C	0.835398	0.517253	0.172581
	C10250	C	0.811024	0.475985	0.327061
	C10251	C	0.873543	0.538030	0.327730
	C10252	C	0.773759	0.507811	0.500368
	C10253	C	0.836125	0.456047	-0.000148
	C10254	C	0.803775	0.518193	0.499741
	C10255	C	0.856392	0.386111	-0.000100
	C10256	C	0.806915	0.471116	0.249981
	C10257	C	0.869503	0.533074	0.250301
	C10258	C	0.777253	0.457243	0.250521
	C10259	C	0.839807	0.519590	0.249624
	C10260	C	0.781455	0.509082	0.500451
	C10261	C	0.841255	0.438369	0.000096
	C10262	C	0.796182	0.515685	0.500283
	C10263	C	0.851264	0.403819	0.000312
	C10264	C	0.799574	0.465965	0.250437
	C10265	C	0.862148	0.527926	0.250196
	C10266	C	0.784844	0.460049	0.250561
	C10267	C	0.847417	0.522158	0.249726
	C10268	C	0.785308	0.510201	0.583590
	C10269	C	0.844258	0.430371	0.512723
	C10270	C	0.792305	0.514427	-0.083302
	C10271	C	0.848810	0.412889	-0.012744
	C10272	C	0.792464	0.513413	0.583259
	C10273	C	0.849091	0.413572	0.512958
	C10274	C	0.785161	0.511122	-0.083065
	C10275	C	0.843936	0.429660	-0.013056
	C10276	C	0.795842	0.463839	0.168762
	C10277	C	0.858401	0.525977	0.331233
	C10278	C	0.788632	0.461652	0.332558
	C10279	C	0.851216	0.523561	0.168673
	C10280	C	0.788688	0.460934	0.168948
	C10281	C	0.851247	0.523171	0.331102
	C10282	C	0.795780	0.464573	0.332243
	C10283	C	0.858364	0.526390	0.168943
	N10284	N	0.762254	0.512545	0.452063
	N10285	N	0.828508	0.481719	0.451878
	N10286	N	0.815303	0.515843	0.048067
	N10287	N	0.864062	0.360430	0.046961
	N10288	N	0.815287	0.515769	0.450635
	N10289	N	0.864129	0.360622	0.452005
	N10290	N	0.762256	0.512568	0.049364
	N10291	N	0.828462	0.481728	0.047501
	N10292	N	0.816804	0.484132	0.201603
	N10293	N	0.879419	0.546011	0.202626
	N10294	N	0.766296	0.451311	0.299174
	N10295	N	0.828807	0.514166	0.297938
	N10296	N	0.766297	0.451215	0.202626
	N10297	N	0.828823	0.513992	0.201115
	N10298	N	0.816838	0.484062	0.297807
	N10299	N	0.879411	0.546004	0.298398
	H10300	H	0.770338	0.507846	0.848696
	H10301	H	0.833981	0.463914	0.849228
	H10302	H	0.807128	0.518318	0.652094
	H10303	H	0.858692	0.378213	0.650633
	H10304	H	0.807061	0.518195	0.847238
	H10305	H	0.858749	0.378582	0.848749
	H10306	H	0.770452	0.508689	0.652305
	H10307	H	0.834036	0.464151	0.650322
	H10308	H	0.810035	0.474213	0.597888
	H10309	H	0.872514	0.536377	0.598851
	H10310	H	0.774258	0.455167	0.900825
	H10311	H	0.836544	0.518249	0.900144
	H10312	H	0.774002	0.456094	0.600195
	H10313	H	0.836559	0.518667	0.598379
	H10314	H	0.810079	0.474180	0.901045
	H10315	H	0.872514	0.536166	0.901452
	H10316	H	0.782665	0.508578	1.149182
	H10317	H	0.841814	0.435562	1.023476
	H10318	H	0.795038	0.515360	0.350978
	H10319	H	0.849840	0.404686	0.477726
	H10320	H	0.795143	0.514072	1.148845
	H10321	H	0.850390	0.406050	1.023896
	H10322	H	0.782491	0.510127	0.351561
	H10323	H	0.841331	0.434356	0.477501
	H10324	H	0.798704	0.464068	0.604699
	H10325	H	0.861080	0.527484	0.605173
	H10326	H	0.785999	0.460700	0.896222
	H10327	H	0.848424	0.522681	0.894727
	H10328	H	0.786146	0.458964	0.605485
	H10329	H	0.848492	0.522466	0.604723
	H10330	H	0.798601	0.465688	0.895583
	H10331	H	0.861073	0.527297	0.895012
	Co10332	Co	0.884972	0.562756	0.625396
	Co10333	Co	0.822442	0.500815	0.623993
	Co10334	Co	0.760012	0.437876	0.876125
	Co10335	Co	0.822441	0.500753	0.874570
	C10336	C	0.769082	0.509063	0.923070
	C10337	C	0.833101	0.466632	0.922720
	C10338	C	0.808427	0.517610	0.577470
	C10339	C	0.859501	0.375622	0.577083
	C10340	C	0.808405	0.517563	0.921686
	C10341	C	0.859522	0.375726	0.922395
	C10342	C	0.769137	0.509635	0.577950
	C10343	C	0.833133	0.466715	0.576662
	C10344	C	0.811060	0.475914	0.671998
	C10345	C	0.873541	0.538037	0.673146
	C10346	C	0.772951	0.454753	0.827447
	C10347	C	0.835332	0.517712	0.826416
	C10348	C	0.772865	0.455268	0.673753
	C10349	C	0.835332	0.517894	0.672133
	C10350	C	0.811093	0.475730	0.826812
	C10351	C	0.873547	0.537937	0.827591
	C10352	C	0.773751	0.507462	1.000446
	C10353	C	0.836127	0.456085	0.499733
	C10354	C	0.803765	0.518400	0.999231
	C10355	C	0.856431	0.386060	0.500315
	C10356	C	0.807014	0.470829	0.749437
	C10357	C	0.869494	0.532967	0.750413
	C10358	C	0.777348	0.457301	0.750721
	C10359	C	0.839758	0.520041	0.749353
	C10360	C	0.781422	0.509026	1.000115
	C10361	C	0.841312	0.438420	0.500081
	C10362	C	0.796135	0.515916	0.999538
	C10363	C	0.851284	0.403746	0.500336
	C10364	C	0.799681	0.465690	0.749930
	C10365	C	0.862131	0.528021	0.750358
	C10366	C	0.784936	0.459925	0.750724
	C10367	C	0.847360	0.522480	0.749800
	C10368	C	0.785276	0.510193	1.083001
	C10369	C	0.843732	0.429287	1.013564
	C10370	C	0.792387	0.514163	0.417372
	C10371	C	0.848334	0.411869	0.487442
	C10372	C	0.792419	0.513465	1.082621
	C10373	C	0.848609	0.412553	1.013476
	C10374	C	0.785228	0.511031	0.417391
	C10375	C	0.843494	0.428646	0.487368
	C10376	C	0.795954	0.463371	0.668891
	C10377	C	0.858361	0.526320	0.669118
	C10378	C	0.788726	0.461507	0.831675
	C10379	C	0.851169	0.523675	0.830790
	C10380	C	0.788793	0.460563	0.669395
	C10381	C	0.851185	0.523653	0.668818
	C10382	C	0.795891	0.464355	0.831495
	C10383	C	0.858351	0.526389	0.831106
	N10384	N	0.762236	0.512418	0.952032
	N10385	N	0.828545	0.481872	0.951812
	N10386	N	0.815295	0.515756	0.548530
	N10387	N	0.864085	0.360439	0.547665
	N10388	N	0.815290	0.515700	0.950204
	N10389	N	0.864047	0.360471	0.951506
	N10390	N	0.762286	0.512695	0.549579
	N10391	N	0.828596	0.481938	0.547398
	N10392	N	0.816925	0.483850	0.701305
	N10393	N	0.879367	0.546006	0.702336
	N10394	N	0.766399	0.451231	0.799285
	N10395	N	0.828763	0.514291	0.797691
	N10396	N	0.766328	0.451578	0.702567
	N10397	N	0.828767	0.514355	0.700812
	N10398	N	0.816912	0.483779	0.797665
	N10399	N	0.879416	0.545870	0.798558
	H10400	H	0.765174	0.605046	0.349316
	H10401	H	0.832848	0.570960	0.347448
	H10402	H	0.802387	0.610434	0.151961
	H10403	H	0.869697	0.580502	0.151687
	H10404	H	0.802358	0.610341	0.347428
	H10405	H	0.869650	0.580572	0.348424
	H10406	H	0.765318	0.605481	0.152743
	H10407	H	0.832869	0.570664	0.151535
	H10408	H	0.804429	0.566996	0.097585
	H10409	H	0.867079	0.629257	0.098597
	H10410	H	0.767930	0.552497	0.403106
	H10411	H	0.830466	0.614498	0.402026
	H10412	H	0.767979	0.552005	0.098643
	H10413	H	0.830450	0.614726	0.098260
	H10414	H	0.804580	0.566457	0.401275
	H10415	H	0.866993	0.629541	0.402984
	H10416	H	0.777534	0.605433	0.649914
	H10417	H	0.845100	0.571290	0.350740
	H10418	H	0.790240	0.608979	0.149776
	H10419	H	0.857610	0.577683	0.147966
	H10420	H	0.790190	0.609210	0.649693
	H10421	H	0.857616	0.576614	0.350716
	H10422	H	0.777590	0.605283	0.149963
	H10423	H	0.845079	0.572339	0.147633
	H10424	H	0.792531	0.561057	0.100270
	H10425	H	0.855002	0.624115	0.399446
	H10426	H	0.779839	0.558953	0.399624
	H10427	H	0.842363	0.620765	0.100939
	H10428	H	0.779853	0.557708	0.101127
	H10429	H	0.842332	0.620585	0.398840
	H10430	H	0.792529	0.562225	0.399395
	H10431	H	0.855019	0.624404	0.101257
	Co10432	Co	0.880163	0.652654	0.125879
	Co10433	Co	0.817613	0.590086	0.124114
	Co10434	Co	0.755088	0.527805	0.376223
	Co10435	Co	0.817601	0.590166	0.374843
	C10436	C	0.763924	0.606266	0.423329
	C10437	C	0.831619	0.571758	0.421960
	C10438	C	0.803655	0.609302	0.077121
	C10439	C	0.870976	0.579814	0.077423
	C10440	C	0.803626	0.609243	0.421992
	C10441	C	0.870940	0.579834	0.422707
	C10442	C	0.764002	0.606552	0.078340
	C10443	C	0.831663	0.571618	0.076887
	C10444	C	0.805622	0.568259	0.172157
	C10445	C	0.868183	0.630671	0.173497
	C10446	C	0.766878	0.550854	0.328347
	C10447	C	0.829358	0.613184	0.327341
	C10448	C	0.766882	0.550724	0.173428
	C10449	C	0.829358	0.613216	0.172431
	C10450	C	0.805700	0.567947	0.327004
	C10451	C	0.868134	0.630822	0.328227
	C10452	C	0.768616	0.604858	0.500559
	C10453	C	0.836294	0.570092	-0.000515
	C10454	C	0.798967	0.611185	0.499718
	C10455	C	0.866373	0.580485	-0.000184
	C10456	C	0.801309	0.564729	0.249638
	C10457	C	0.863813	0.627400	0.250553
	C10458	C	0.771160	0.554689	0.250693
	C10459	C	0.833619	0.617043	0.249902
	C10460	C	0.776330	0.605784	0.500171
	C10461	C	0.844001	0.571556	-0.000466
	C10462	C	0.791246	0.610425	0.500035
	C10463	C	0.858723	0.578119	-0.000322
	C10464	C	0.793707	0.561791	0.249830
	C10465	C	0.856195	0.624496	0.250405
	C10466	C	0.778700	0.558063	0.250402
	C10467	C	0.841189	0.620477	0.249883
	C10468	C	0.780202	0.606602	0.583412
	C10469	C	0.847768	0.572742	0.417085
	C10470	C	0.787483	0.608695	0.083450
	C10471	C	0.854921	0.576460	0.082237
	C10472	C	0.787450	0.608762	0.583307
	C10473	C	0.854913	0.575896	0.417084
	C10474	C	0.780245	0.606519	0.083516
	C10475	C	0.847785	0.573289	0.082206
	C10476	C	0.789833	0.560604	0.166983
	C10477	C	0.852305	0.623462	0.333023
	C10478	C	0.782561	0.559390	0.333190
	C10479	C	0.845059	0.621594	0.167224
	C10480	C	0.782571	0.558714	0.167348
	C10481	C	0.845060	0.621406	0.332773
	C10482	C	0.789824	0.561211	0.332977
	C10483	C	0.852309	0.623595	0.167507
	N10484	N	0.757105	0.609795	0.452308
	N10485	N	0.824770	0.574921	0.450677
	N10486	N	0.810494	0.605614	0.048439
	N10487	N	0.877872	0.577871	0.049148
	N10488	N	0.810450	0.605573	0.450902
	N10489	N	0.877822	0.577830	0.451529
	N10490	N	0.757148	0.609834	0.049822
	N10491	N	0.824798	0.574879	0.048030
	N10492	N	0.811909	0.573921	0.200793
	N10493	N	0.874453	0.636433	0.202524
	N10494	N	0.760719	0.544368	0.299539
	N10495	N	0.823163	0.606825	0.298161
	N10496	N	0.760710	0.544317	0.202515
	N10497	N	0.823182	0.606785	0.201216
	N10498	N	0.811959	0.573746	0.298147
	N10499	N	0.874445	0.636425	0.299821
	H10500	H	0.765220	0.605414	0.848606
	H10501	H	0.832961	0.570688	0.847475
	H10502	H	0.802386	0.610269	0.651653
	H10503	H	0.869605	0.580229	0.652759
	H10504	H	0.802395	0.610119	0.847784
	H10505	H	0.869716	0.580616	0.847779
	H10506	H	0.765302	0.605892	0.652341
	H10507	H	0.832813	0.570542	0.652224
	H10508	H	0.804459	0.566767	0.597920
	H10509	H	0.867101	0.629243	0.599005
	H10510	H	0.767990	0.552206	0.901985
	H10511	H	0.830428	0.614956	0.900975
	H10512	H	0.767881	0.552602	0.598667
	H10513	H	0.830551	0.614516	0.598156
	H10514	H	0.804566	0.566515	0.901889
	H10515	H	0.867021	0.629260	0.903030
	H10516	H	0.777410	0.607480	0.850734
	H10517	H	0.845150	0.571642	0.851132
	H10518	H	0.790073	0.610588	0.350621
	H10519	H	0.857499	0.577941	0.649447
	H10520	H	0.790067	0.611080	0.850895
	H10521	H	0.857694	0.576879	0.851687
	H10522	H	0.777417	0.606935	0.350575
	H10523	H	0.844992	0.572759	0.649230
	H10524	H	0.792584	0.560935	0.600772
	H10525	H	0.854997	0.624726	0.601495
	H10526	H	0.779767	0.559322	0.899328
	H10527	H	0.842398	0.620318	0.899565
	H10528	H	0.779885	0.557561	0.601077
	H10529	H	0.842335	0.621384	0.601414
	H10530	H	0.792472	0.562836	0.899278
	H10531	H	0.855034	0.623906	0.899226
	Co10532	Co	0.880087	0.652776	0.625691
	Co10533	Co	0.817594	0.590149	0.624003
	Co10534	Co	0.755104	0.527775	0.876251
	Co10535	Co	0.817649	0.590054	0.874661
	C10536	C	0.763956	0.606420	0.923245
	C10537	C	0.831688	0.571596	0.921980
	C10538	C	0.803635	0.609396	0.577359
	C10539	C	0.870932	0.579700	0.577964
	C10540	C	0.803650	0.609176	0.922259
	C10541	C	0.870995	0.579872	0.922533
	C10542	C	0.763981	0.606764	0.578330
	C10543	C	0.831599	0.571515	0.577307
	C10544	C	0.805597	0.568167	0.672243
	C10545	C	0.868151	0.630698	0.673346
	C10546	C	0.766925	0.550604	0.827651
	C10547	C	0.829366	0.613232	0.826975
	C10548	C	0.766848	0.550963	0.673307
	C10549	C	0.829400	0.613165	0.672473
	C10550	C	0.805653	0.568049	0.827151
	C10551	C	0.868120	0.630691	0.828293
	C10552	C	0.768645	0.604878	1.000588
	C10553	C	0.836235	0.570109	0.499729
	C10554	C	0.799017	0.611058	0.999735
	C10555	C	0.866312	0.580459	0.500216
	C10556	C	0.801300	0.564704	0.749881
	C10557	C	0.863806	0.627240	0.750705
	C10558	C	0.771140	0.554673	0.750445
	C10559	C	0.833653	0.617123	0.749950
	C10560	C	0.776369	0.605820	1.000196
	C10561	C	0.843924	0.571602	0.499909
	C10562	C	0.791289	0.610390	1.000098
	C10563	C	0.858667	0.578176	0.499986
	C10564	C	0.793683	0.561894	0.750017
	C10565	C	0.856202	0.624390	0.750316
	C10566	C	0.778689	0.558102	0.750231
	C10567	C	0.841200	0.620589	0.750211
	C10568	C	0.780146	0.607713	0.917260
	C10569	C	0.847825	0.572934	0.917012
	C10570	C	0.787378	0.609566	0.416939
	C10571	C	0.854841	0.576722	0.582949
	C10572	C	0.787382	0.609864	0.917031
	C10573	C	0.854967	0.576041	0.917089
	C10574	C	0.780134	0.607390	0.417076
	C10575	C	0.847704	0.573563	0.582863
	C10576	C	0.789842	0.560551	0.667167
	C10577	C	0.852309	0.623754	0.667538
	C10578	C	0.782525	0.559636	0.833167
	C10579	C	0.845061	0.621372	0.833143
	C10580	C	0.782591	0.558713	0.667232
	C10581	C	0.845051	0.621916	0.667573
	C10582	C	0.789783	0.561525	0.833006
	C10583	C	0.852315	0.623316	0.832994
	N10584	N	0.757121	0.609779	0.952474
	N10585	N	0.824814	0.574814	0.950393
	N10586	N	0.810463	0.605644	0.548205
	N10587	N	0.877827	0.577759	0.549645
	N10588	N	0.810482	0.605487	0.950938
	N10589	N	0.877884	0.577909	0.951027
	N10590	N	0.757137	0.610034	0.549815
	N10591	N	0.824752	0.574823	0.548286
	N10592	N	0.811884	0.573938	0.700925
	N10593	N	0.874426	0.636479	0.702372
	N10594	N	0.760735	0.544208	0.799149
	N10595	N	0.823221	0.606731	0.797814
	N10596	N	0.760699	0.544441	0.702139
	N10597	N	0.823229	0.606742	0.700998
	N10598	N	0.811938	0.573805	0.798114
	N10599	N	0.874401	0.636521	0.799682
	H10600	H	0.760073	0.702303	0.348574
	H10601	H	0.827803	0.668352	0.348022
	H10602	H	0.797262	0.707668	0.151820
	H10603	H	0.864874	0.672451	0.152869
	H10604	H	0.797120	0.707050	0.347804
	H10605	H	0.864952	0.673360	0.349294
	H10606	H	0.760148	0.702521	0.153461
	H10607	H	0.827799	0.668031	0.151588
	H10608	H	0.799529	0.663830	0.098396
	H10609	H	0.862074	0.725793	0.098959
	H10610	H	0.763023	0.649012	0.402421
	H10611	H	0.825372	0.711922	0.401532
	H10612	H	0.762861	0.649387	0.098761
	H10613	H	0.825522	0.711362	0.097569
	H10614	H	0.799629	0.663269	0.401830
	H10615	H	0.861989	0.726158	0.402569
	H10616	H	0.772260	0.703130	0.351035
	H10617	H	0.840050	0.668223	0.351399
	H10618	H	0.784906	0.707494	-0.148664
	H10619	H	0.852609	0.672828	0.149291
	H10620	H	0.784874	0.706885	0.350924
	H10621	H	0.852687	0.672009	0.351432
	H10622	H	0.772227	0.703694	-0.148167
	H10623	H	0.839967	0.668973	0.148602
	H10624	H	0.787656	0.656930	0.100989
	H10625	H	0.850101	0.720060	0.399448
	H10626	H	0.774850	0.655314	0.399561
	H10627	H	0.837365	0.717527	0.100929
	H10628	H	0.774991	0.653839	0.101045
	H10629	H	0.837410	0.716746	0.398860
	H10630	H	0.787557	0.658586	0.399267
	H10631	H	0.850041	0.720823	0.101546
	Co10632	Co	0.874990	0.750191	0.125657
	Co10633	Co	0.812494	0.687662	0.123982
	Co10634	Co	0.749962	0.625272	0.376859
	Co10635	Co	0.812429	0.687699	0.374652
	C10636	C	0.758827	0.703393	0.423326
	C10637	C	0.826515	0.669138	0.422385
	C10638	C	0.798515	0.706482	0.077266
	C10639	C	0.866160	0.671670	0.078264
	C10640	C	0.798411	0.706131	0.422362
	C10641	C	0.866173	0.672133	0.423736
	C10642	C	0.758851	0.703393	0.078791
	C10643	C	0.826538	0.669014	0.077291
	C10644	C	0.800606	0.665060	0.172845
	C10645	C	0.863167	0.727401	0.173110
	C10646	C	0.761883	0.647577	0.328187
	C10647	C	0.824321	0.710254	0.327022
	C10648	C	0.761801	0.647783	0.173683
	C10649	C	0.824404	0.710052	0.172255
	C10650	C	0.800666	0.664830	0.327260
	C10651	C	0.863143	0.727474	0.328054
	C10652	C	0.763452	0.701544	0.500896
	C10653	C	0.831164	0.667420	-0.000276
	C10654	C	0.793794	0.707897	0.500224
	C10655	C	0.861546	0.673769	0.000605
	C10656	C	0.796350	0.661248	0.250116
	C10657	C	0.858845	0.723752	0.250543
	C10658	C	0.766146	0.651277	0.250749
	C10659	C	0.828667	0.713760	0.249958
	C10660	C	0.771168	0.702362	0.500698
	C10661	C	0.838883	0.668321	-0.000353
	C10662	C	0.786057	0.707012	0.500660
	C10663	C	0.853801	0.672928	0.000278
	C10664	C	0.788777	0.658078	0.250197
	C10665	C	0.851256	0.720569	0.250508
	C10666	C	0.773744	0.654439	0.250369
	C10667	C	0.836235	0.716906	0.249973
	C10668	C	0.774976	0.703792	0.417272
	C10669	C	0.842747	0.669240	0.417532
	C10670	C	0.782230	0.706219	-0.082500
	C10671	C	0.849924	0.671876	0.083120
	C10672	C	0.782199	0.706050	0.417383
	C10673	C	0.849967	0.671490	0.417703
	C10674	C	0.774994	0.704097	-0.082303
	C10675	C	0.842705	0.669704	0.082768
	C10676	C	0.784918	0.656731	0.167354
	C10677	C	0.847406	0.719388	0.333232
	C10678	C	0.777600	0.655745	0.333135
	C10679	C	0.840085	0.718191	0.167161
	C10680	C	0.777657	0.654885	0.167367
	C10681	C	0.840141	0.717537	0.333029
	C10682	C	0.784855	0.657563	0.333095
	C10683	C	0.847356	0.719995	0.167693
	N10684	N	0.751983	0.706989	0.452150
	N10685	N	0.819672	0.672536	0.451045
	N10686	N	0.805356	0.703034	0.048045
	N10687	N	0.873004	0.668060	0.049855
	N10688	N	0.805268	0.702846	0.450900
	N10689	N	0.873017	0.668279	0.452626
	N10690	N	0.752011	0.707017	0.049965
	N10691	N	0.819690	0.672418	0.048459
	N10692	N	0.806829	0.671313	0.201493
	N10693	N	0.869361	0.733658	0.202273
	N10694	N	0.755640	0.641596	0.299851
	N10695	N	0.818104	0.704156	0.297826
	N10696	N	0.755590	0.641649	0.202514
	N10697	N	0.818171	0.704064	0.200706
	N10698	N	0.806861	0.671126	0.298469
	N10699	N	0.869347	0.733721	0.299223
	H10700	H	0.760106	0.702084	0.849110
	H10701	H	0.827786	0.668074	0.847755
	H10702	H	0.797196	0.707570	0.651726
	H10703	H	0.864883	0.672695	0.653632
	H10704	H	0.797156	0.706764	0.848139
	H10705	H	0.864974	0.673605	0.848451
	H10706	H	0.760052	0.702134	0.653180
	H10707	H	0.827746	0.667476	0.652170
	H10708	H	0.799423	0.663632	0.598750
	H10709	H	0.862026	0.726148	0.598355
	H10710	H	0.763012	0.649221	0.902124
	H10711	H	0.825437	0.711657	0.901825
	H10712	H	0.762796	0.649708	0.599231
	H10713	H	0.825497	0.711337	0.597692
	H10714	H	0.799606	0.663239	0.902074
	H10715	H	0.862089	0.725973	0.902491
	H10716	H	0.772443	0.701753	1.149968
	H10717	H	0.840071	0.668484	0.850960
	H10718	H	0.785003	0.706006	0.649879
	H10719	H	0.852559	0.673162	0.650191
	H10720	H	0.785111	0.705496	1.149596
	H10721	H	0.852710	0.672129	0.851370
	H10722	H	0.772342	0.702284	0.650146
	H10723	H	0.839925	0.669244	0.650359
	H10724	H	0.787499	0.658896	0.899644
	H10725	H	0.850046	0.720896	0.600879
	H10726	H	0.774924	0.654002	0.600912
	H10727	H	0.837465	0.716629	0.899733
	H10728	H	0.774783	0.655982	0.899315
	H10729	H	0.837372	0.717609	0.600735
	H10730	H	0.787621	0.657129	0.601326
	H10731	H	0.850115	0.719998	0.899740
	Co10732	Co	0.874982	0.750260	0.626299
	Co10733	Co	0.812465	0.687529	0.624257
	Co10734	Co	0.749970	0.625119	0.876270
	Co10735	Co	0.812484	0.687523	0.875260
	C10736	C	0.758843	0.703311	0.923575
	C10737	C	0.826538	0.669009	0.922294
	C10738	C	0.798477	0.706348	0.577415
	C10739	C	0.866138	0.671793	0.578813
	C10740	C	0.798464	0.706027	0.922267
	C10741	C	0.866203	0.672174	0.923356
	C10742	C	0.758828	0.703220	0.578533
	C10743	C	0.826475	0.668731	0.577529
	C10744	C	0.800582	0.665024	0.673128
	C10745	C	0.863132	0.727550	0.673134
	C10746	C	0.761846	0.647724	0.827958
	C10747	C	0.824360	0.710145	0.827112
	C10748	C	0.761781	0.647906	0.673363
	C10749	C	0.824404	0.709945	0.672114
	C10750	C	0.800629	0.664919	0.827694
	C10751	C	0.863140	0.727429	0.827915
	C10752	C	0.763478	0.701564	1.001130
	C10753	C	0.831125	0.667329	0.500197
	C10754	C	0.793860	0.707835	0.999981
	C10755	C	0.861512	0.673782	0.501255
	C10756	C	0.796298	0.661277	0.750582
	C10757	C	0.858843	0.723815	0.750411
	C10758	C	0.766116	0.651644	0.750567
	C10759	C	0.828668	0.713689	0.749840
	C10760	C	0.771223	0.702302	1.000775
	C10761	C	0.838863	0.668303	0.500751
	C10762	C	0.786130	0.706929	1.000394
	C10763	C	0.853769	0.673053	0.500942
	C10764	C	0.788728	0.658218	0.750600
	C10765	C	0.851264	0.720613	0.750362
	C10766	C	0.773693	0.654764	0.750108
	C10767	C	0.836263	0.716833	0.750110
	C10768	C	0.775119	0.702962	1.083733
	C10769	C	0.842757	0.669351	0.916934
	C10770	C	0.782274	0.705439	0.583819
	C10771	C	0.849886	0.672109	0.583929
	C10772	C	0.782342	0.705186	1.083593
	C10773	C	0.849988	0.671480	0.917341
	C10774	C	0.775044	0.703275	0.583862
	C10775	C	0.842662	0.669845	0.584166
	C10776	C	0.784815	0.657805	0.833224
	C10777	C	0.847372	0.719913	0.667227
	C10778	C	0.777603	0.655143	0.667377
	C10779	C	0.840152	0.717522	0.833392
	C10780	C	0.777535	0.656133	0.833067
	C10781	C	0.840119	0.718077	0.667062
	C10782	C	0.784879	0.656871	0.667649
	C10783	C	0.847401	0.719456	0.833329
	N10784	N	0.752002	0.706899	0.952778
	N10785	N	0.819679	0.672359	0.951012
	N10786	N	0.805312	0.702920	0.548279
	N10787	N	0.872982	0.668203	0.549965
	N10788	N	0.805322	0.702818	0.950800
	N10789	N	0.873040	0.668386	0.952361
	N10790	N	0.751987	0.706894	0.549660
	N10791	N	0.819632	0.672208	0.548434
	N10792	N	0.806811	0.671190	0.701789
	N10793	N	0.869368	0.733639	0.702285
	N10794	N	0.755652	0.641473	0.799246
	N10795	N	0.818152	0.703930	0.798047
	N10796	N	0.755611	0.641605	0.702323
	N10797	N	0.818171	0.703893	0.700857
	N10798	N	0.806834	0.671082	0.798837
	N10799	N	0.869354	0.733577	0.799491
	H10800	H	0.755247	0.794214	0.348856
	H10801	H	0.822580	0.764736	0.347994
	H10802	H	0.792133	0.804446	0.151122
	H10803	H	0.859651	0.769548	0.153043
	H10804	H	0.792022	0.804380	0.348029
	H10805	H	0.859722	0.769763	0.348804
	H10806	H	0.755340	0.794570	0.152206
	H10807	H	0.822517	0.764467	0.151512
	H10808	H	0.794477	0.760531	0.098109
	H10809	H	0.857060	0.822510	0.099546
	H10810	H	0.758052	0.745619	0.402779
	H10811	H	0.820358	0.808538	0.401769
	H10812	H	0.757873	0.746157	0.098887
	H10813	H	0.820498	0.808128	0.097852
	H10814	H	0.794486	0.760548	0.401443
	H10815	H	0.856896	0.823256	0.402680
	H10816	H	0.767429	0.797005	0.649751
	H10817	H	0.834863	0.764414	0.350275
	H10818	H	0.779742	0.804083	-0.148934
	H10819	H	0.847345	0.769204	0.150425
	H10820	H	0.779931	0.802471	0.649204
	H10821	H	0.847520	0.767980	0.350518
	H10822	H	0.767242	0.798690	-0.148839
	H10823	H	0.834723	0.765527	0.149464
	H10824	H	0.782622	0.753727	0.100721
	H10825	H	0.845117	0.816330	0.399996
	H10826	H	0.769891	0.751578	0.399738
	H10827	H	0.832364	0.813997	0.101297
	H10828	H	0.769956	0.750196	0.101115
	H10829	H	0.832432	0.812837	0.399966
	H10830	H	0.782574	0.754983	0.399278
	H10831	H	0.845046	0.817585	0.101642
	Co10832	Co	0.869825	0.847342	0.126425
	Co10833	Co	0.807384	0.784904	0.124250
	Co10834	Co	0.744817	0.722506	0.376627
	Co10835	Co	0.807343	0.784981	0.374835
	C10836	C	0.753976	0.795081	0.423460
	C10837	C	0.821347	0.765896	0.422312
	C10838	C	0.793350	0.803453	0.076946
	C10839	C	0.860920	0.768622	0.078530
	C10840	C	0.793268	0.803532	0.422337
	C10841	C	0.860956	0.768580	0.423240
	C10842	C	0.754038	0.795300	0.078103
	C10843	C	0.821286	0.765653	0.077014
	C10844	C	0.795571	0.762040	0.172485
	C10845	C	0.858099	0.824099	0.173609
	C10846	C	0.756876	0.744273	0.328375
	C10847	C	0.819249	0.807144	0.327281
	C10848	C	0.756784	0.744622	0.173432
	C10849	C	0.819332	0.806934	0.172558
	C10850	C	0.795578	0.761965	0.327040
	C10851	C	0.858021	0.824451	0.328223
	C10852	C	0.758578	0.794587	0.501018
	C10853	C	0.825925	0.763859	-0.000349
	C10854	C	0.788687	0.805218	0.500219
	C10855	C	0.856288	0.770373	0.000908
	C10856	C	0.791297	0.758137	0.249884
	C10857	C	0.853801	0.820439	0.250767
	C10858	C	0.761164	0.747871	0.250733
	C10859	C	0.823621	0.810425	0.250125
	C10860	C	0.766223	0.796999	0.501078
	C10861	C	0.833655	0.764599	-0.000283
	C10862	C	0.780961	0.803736	0.500797
	C10863	C	0.848575	0.769361	0.000612
	C10864	C	0.783764	0.754628	0.249996
	C10865	C	0.846239	0.817138	0.250703
	C10866	C	0.768771	0.750742	0.250460
	C10867	C	0.831224	0.813404	0.250578
	C10868	C	0.770057	0.798478	0.583622
	C10869	C	0.837540	0.765530	0.416732
	C10870	C	0.777124	0.802688	-0.082820
	C10871	C	0.844687	0.768388	0.083720
	C10872	C	0.777197	0.801594	0.583517
	C10873	C	0.844773	0.767616	0.416719
	C10874	C	0.769978	0.799581	-0.082916
	C10875	C	0.837463	0.766076	0.083266
	C10876	C	0.779915	0.753169	0.167062
	C10877	C	0.842388	0.815761	0.333763
	C10878	C	0.772616	0.752039	0.333514
	C10879	C	0.835085	0.814612	0.167721
	C10880	C	0.772661	0.751231	0.167163
	C10881	C	0.835135	0.813896	0.333685
	C10882	C	0.779880	0.753937	0.333148
	C10883	C	0.842347	0.816458	0.167836
	N10884	N	0.747084	0.797039	0.451993
	N10885	N	0.814512	0.769590	0.450854
	N10886	N	0.800198	0.800115	0.048255
	N10887	N	0.867752	0.765293	0.049889
	N10888	N	0.800150	0.800162	0.451126
	N10889	N	0.867834	0.765315	0.452592
	N10890	N	0.747134	0.797132	0.049652
	N10891	N	0.814444	0.769370	0.048352
	N10892	N	0.801753	0.768431	0.201315
	N10893	N	0.864244	0.830711	0.202809
	N10894	N	0.750581	0.738633	0.299794
	N10895	N	0.812992	0.801311	0.298085
	N10896	N	0.750546	0.738743	0.202665
	N10897	N	0.813038	0.801208	0.201036
	N10898	N	0.801753	0.768373	0.298269
	N10899	N	0.864194	0.830905	0.299594
	H10900	H	0.755275	0.794415	0.848272
	H10901	H	0.822475	0.764763	0.847633
	H10902	H	0.792074	0.804716	0.652120
	H10903	H	0.859676	0.769544	0.652940
	H10904	H	0.792066	0.804187	0.847641
	H10905	H	0.859687	0.769834	0.849201
	H10906	H	0.755218	0.794762	0.653231
	H10907	H	0.822563	0.764522	0.651486
	H10908	H	0.794443	0.760811	0.598113
	H10909	H	0.857084	0.823013	0.599038
	H10910	H	0.758015	0.746052	0.902989
	H10911	H	0.820476	0.808410	0.901205
	H10912	H	0.757944	0.745947	0.599284
	H10913	H	0.820489	0.808338	0.597957
	H10914	H	0.794604	0.760251	0.900931
	H10915	H	0.857081	0.822945	0.902413
	H10916	H	0.767389	0.797374	1.148291
	H10917	H	0.834845	0.764705	0.850197
	H10918	H	0.779742	0.804232	0.352354
	H10919	H	0.847464	0.769118	0.649642
	H10920	H	0.779940	0.802533	1.148537
	H10921	H	0.847509	0.768342	0.850673
	H10922	H	0.767271	0.798633	0.352371
	H10923	H	0.834761	0.765303	0.649514
	H10924	H	0.782561	0.755639	0.899499
	H10925	H	0.845132	0.817383	0.600795
	H10926	H	0.770012	0.750065	0.600879
	H10927	H	0.832467	0.813026	0.899623
	H10928	H	0.769876	0.752030	0.899910
	H10929	H	0.832436	0.814040	0.600500
	H10930	H	0.782695	0.753368	0.600832
	H10931	H	0.845132	0.816608	0.899543
	Co10932	Co	0.869923	0.847394	0.625991
	Co10933	Co	0.807362	0.785002	0.623778
	Co10934	Co	0.744911	0.722442	0.876947
	Co10935	Co	0.807363	0.785038	0.874752
	C10936	C	0.754000	0.795092	0.922731
	C10937	C	0.821272	0.765722	0.922261
	C10938	C	0.793320	0.803678	0.577448
	C10939	C	0.860919	0.768540	0.578457
	C10940	C	0.793316	0.803388	0.922067
	C10941	C	0.860950	0.768939	0.923620
	C10942	C	0.753968	0.795326	0.578433
	C10943	C	0.821320	0.765796	0.577183
	C10944	C	0.795572	0.762155	0.672266
	C10945	C	0.858137	0.824471	0.673624
	C10946	C	0.756884	0.744604	0.828421
	C10947	C	0.819345	0.806955	0.826862
	C10948	C	0.756870	0.744511	0.673599
	C10949	C	0.819359	0.806983	0.671967
	C10950	C	0.795636	0.761950	0.826703
	C10951	C	0.858102	0.824550	0.828074
	C10952	C	0.758621	0.794591	1.000177
	C10953	C	0.825945	0.763971	0.499921
	C10954	C	0.788699	0.805048	0.999657
	C10955	C	0.856322	0.770153	0.500634
	C10956	C	0.791343	0.758157	0.749721
	C10957	C	0.853852	0.820629	0.750691
	C10958	C	0.761182	0.748090	0.750895
	C10959	C	0.823691	0.810367	0.749589
	C10960	C	0.766251	0.797203	0.999836
	C10961	C	0.833692	0.764661	0.499969
	C10962	C	0.780991	0.803783	0.999820
	C10963	C	0.848571	0.769190	0.500211
	C10964	C	0.783781	0.754727	0.750259
	C10965	C	0.846294	0.817267	0.750281
	C10966	C	0.768786	0.750960	0.750441
	C10967	C	0.831302	0.813306	0.749827
	C10968	C	0.770077	0.798635	1.082721
	C10969	C	0.837546	0.765539	0.916752
	C10970	C	0.777096	0.802628	0.418124
	C10971	C	0.844717	0.768120	0.583502
	C10972	C	0.777221	0.801786	1.082578
	C10973	C	0.844781	0.767815	0.917148
	C10974	C	0.769972	0.799406	0.418346
	C10975	C	0.837511	0.765926	0.583470
	C10976	C	0.779875	0.754317	0.833562
	C10977	C	0.842419	0.816404	0.667009
	C10978	C	0.772689	0.751240	0.667208
	C10979	C	0.835159	0.813987	0.833120
	C10980	C	0.772617	0.752422	0.833614
	C10981	C	0.835162	0.814526	0.666830
	C10982	C	0.779946	0.753074	0.667258
	C10983	C	0.842406	0.816014	0.833188
	N10984	N	0.747108	0.797018	0.951780
	N10985	N	0.814460	0.769562	0.950967
	N10986	N	0.800180	0.800276	0.548192
	N10987	N	0.867789	0.765240	0.549769
	N10988	N	0.800169	0.800094	0.950640
	N10989	N	0.867779	0.765435	0.952527
	N10990	N	0.747086	0.797151	0.550124
	N10991	N	0.814502	0.769537	0.548258
	N10992	N	0.801735	0.768611	0.700689
	N10993	N	0.864309	0.830885	0.702602
	N10994	N	0.750627	0.738617	0.799738
	N10995	N	0.813073	0.801236	0.797867
	N10996	N	0.750599	0.738697	0.702580
	N10997	N	0.813078	0.801242	0.700821
	N10998	N	0.801783	0.768473	0.797580
	N10999	N	0.864277	0.830978	0.799655
	H11000	H	0.766386	0.996866	0.349744
	H11001	H	0.817817	0.857071	0.347930
	H11002	H	0.791316	0.912227	0.150055
	H11003	H	0.854509	0.866707	0.153380
	H11004	H	0.791088	0.911658	0.349012
	H11005	H	0.854639	0.867251	0.349140
	H11006	H	0.766485	0.996992	0.150450
	H11007	H	0.817734	0.856830	0.152024
	H11008	H	0.788336	0.857204	0.099086
	H11009	H	0.850950	0.919338	0.100107
	H11010	H	0.752459	0.838645	0.402838
	H11011	H	0.814808	0.901438	0.401553
	H11012	H	0.752439	0.838704	0.099210
	H11013	H	0.815128	0.900763	0.099406
	H11014	H	0.788352	0.856692	0.400336
	H11015	H	0.850788	0.919794	0.401362
	H11016	H	0.773814	0.967645	0.477157
	H11017	H	0.829932	0.860171	0.351267
	H11018	H	0.783004	0.939329	-0.034490
	H11019	H	0.842326	0.866119	0.149941
	H11020	H	0.782365	0.938004	0.476316
	H11021	H	0.842452	0.865637	0.351826
	H11022	H	0.774419	0.968897	-0.034705
	H11023	H	0.829801	0.860704	0.149085
	H11024	H	0.776489	0.851993	0.104987
	H11025	H	0.838938	0.915731	0.104964
	H11026	H	0.763806	0.848690	0.395095
	H11027	H	0.826430	0.909661	0.396883
	H11028	H	0.763914	0.846901	0.105925
	H11029	H	0.826294	0.910691	0.104809
	H11030	H	0.776409	0.853799	0.394573
	H11031	H	0.839000	0.914669	0.396649
	Co11032	Co	0.864978	0.937085	0.126008
	Co11033	Co	0.802488	0.874678	0.123901
	Co11034	Co	0.739999	0.812167	0.376319
	Co11035	Co	0.802513	0.874550	0.375209
	C11036	C	0.765491	0.999661	0.423326
	C11037	C	0.816550	0.857706	0.422395
	C11038	C	0.792031	0.909240	0.076216
	C11039	C	0.855826	0.865859	0.079057
	C11040	C	0.791897	0.908849	0.422955
	C11041	C	0.855874	0.866229	0.423776
	C11042	C	0.765510	0.999757	0.076911
	C11043	C	0.816504	0.857697	0.077444
	C11044	C	0.789557	0.857853	0.172517
	C11045	C	0.852121	0.919892	0.173797
	C11046	C	0.751431	0.836936	0.328477
	C11047	C	0.813848	0.899535	0.327468
	C11048	C	0.751398	0.836951	0.173541
	C11049	C	0.813944	0.899300	0.172873
	C11050	C	0.789603	0.857617	0.326824
	C11051	C	0.852064	0.920131	0.327777
	C11052	C	0.768530	0.989203	0.500360
	C11053	C	0.821135	0.857114	-0.000080
	C11054	C	0.788853	0.919346	0.500295
	C11055	C	0.851227	0.867732	0.001400
	C11056	C	0.785149	0.855526	0.249766
	C11057	C	0.847647	0.917708	0.250647
	C11058	C	0.755471	0.841919	0.250872
	C11059	C	0.817969	0.904428	0.250248
	C11060	C	0.773682	0.971530	0.500526
	C11061	C	0.828768	0.859585	0.000244
	C11062	C	0.783691	0.936977	0.500515
	C11063	C	0.843502	0.866231	0.000922
	C11064	C	0.777554	0.852797	0.249950
	C11065	C	0.840065	0.915135	0.250489
	C11066	C	0.762818	0.847018	0.250660
	C11067	C	0.825314	0.909530	0.250707
	C11068	C	0.775928	0.961865	0.487070
	C11069	C	0.832611	0.861373	0.417325
	C11070	C	0.781126	0.945900	-0.019758
	C11071	C	0.839663	0.864748	0.083614
	C11072	C	0.780789	0.945086	0.486884
	C11073	C	0.839753	0.864563	0.417656
	C11074	C	0.776251	0.962643	-0.019706
	C11075	C	0.832522	0.861608	0.083122
	C11076	C	0.773758	0.851192	0.169072
	C11077	C	0.836225	0.914355	0.169173
	C11078	C	0.766556	0.849279	0.331468
	C11079	C	0.829112	0.910912	0.332260
	C11080	C	0.766598	0.848351	0.169501
	C11081	C	0.829047	0.911601	0.169323
	C11082	C	0.773715	0.852116	0.330932
	C11083	C	0.836283	0.913737	0.332148
	N11084	N	0.760937	1.014897	0.452421
	N11085	N	0.809664	0.859536	0.450805
	N11086	N	0.796532	0.893912	0.046748
	N11087	N	0.862676	0.862562	0.050338
	N11088	N	0.796431	0.893576	0.452201
	N11089	N	0.862732	0.862794	0.452568
	N11090	N	0.760937	1.014875	0.047824
	N11091	N	0.809606	0.859607	0.048587
	N11092	N	0.796115	0.861355	0.201198
	N11093	N	0.858668	0.923379	0.202463
	N11094	N	0.745595	0.828975	0.299241
	N11095	N	0.808018	0.891551	0.298111
	N11096	N	0.745561	0.828947	0.203046
	N11097	N	0.808073	0.891384	0.201835
	N11098	N	0.796169	0.861129	0.297829
	N11099	N	0.858632	0.923596	0.299103
	H11100	H	0.766157	0.996425	0.849571
	H11101	H	0.817824	0.857332	0.847843
	H11102	H	0.791287	0.911801	0.651347
	H11103	H	0.854637	0.866777	0.653274
	H11104	H	0.790890	0.911323	0.848445
	H11105	H	0.854579	0.867366	0.850089
	H11106	H	0.766181	0.996585	0.650955
	H11107	H	0.817792	0.856855	0.651839
	H11108	H	0.788342	0.857558	0.598448
	H11109	H	0.850915	0.919527	0.600998
	H11110	H	0.752420	0.838599	0.901583
	H11111	H	0.814821	0.901498	0.902633
	H11112	H	0.752293	0.838452	0.598856
	H11113	H	0.815079	0.900861	0.599271
	H11114	H	0.788404	0.856559	0.900005
	H11115	H	0.850863	0.920090	0.902240
	H11116	H	0.774371	0.969106	1.033344
	H11117	H	0.829886	0.860175	0.851753
	H11118	H	0.783574	0.940802	0.524148
	H11119	H	0.842350	0.866096	0.649537
	H11120	H	0.782998	0.939606	1.033299
	H11121	H	0.842472	0.865545	0.852072
	H11122	H	0.774992	0.970360	0.524069
	H11123	H	0.829835	0.860655	0.648691
	H11124	H	0.776530	0.851649	0.603568
	H11125	H	0.838947	0.915663	0.605135
	H11126	H	0.763778	0.848731	0.895680
	H11127	H	0.826420	0.909888	0.897137
	H11128	H	0.763990	0.846497	0.603481
	H11129	H	0.826354	0.910377	0.605081
	H11130	H	0.776381	0.853836	0.895602
	H11131	H	0.838963	0.915248	0.897329
	Co11132	Co	0.864972	0.937095	0.626353
	Co11133	Co	0.802540	0.874605	0.624495
	Co11134	Co	0.739949	0.812052	0.876442
	Co11135	Co	0.802474	0.874590	0.875020
	C11136	C	0.765356	0.999503	0.922873
	C11137	C	0.816529	0.857800	0.922453
	C11138	C	0.791993	0.908968	0.577429
	C11139	C	0.855877	0.865970	0.578690
	C11140	C	0.791802	0.908812	0.922132
	C11141	C	0.855857	0.866250	0.924115
	C11142	C	0.765412	0.999525	0.577350
	C11143	C	0.816549	0.857617	0.577262
	C11144	C	0.789584	0.857874	0.672403
	C11145	C	0.852082	0.920235	0.674818
	C11146	C	0.751409	0.836887	0.827686
	C11147	C	0.813851	0.899664	0.828239
	C11148	C	0.751325	0.836910	0.673116
	C11149	C	0.813982	0.899278	0.673693
	C11150	C	0.789624	0.857393	0.826387
	C11151	C	0.852068	0.920457	0.828525
	C11152	C	0.768541	0.989185	0.999692
	C11153	C	0.821160	0.857095	0.499809
	C11154	C	0.788827	0.919450	0.999347
	C11155	C	0.851253	0.867683	0.501088
	C11156	C	0.785181	0.855389	0.749414
	C11157	C	0.847653	0.918118	0.751360
	C11158	C	0.755424	0.841895	0.750146
	C11159	C	0.817973	0.904430	0.750982
	C11160	C	0.773712	0.971603	0.999496
	C11161	C	0.828805	0.859540	0.499954
	C11162	C	0.783694	0.937113	0.999437
	C11163	C	0.843538	0.866275	0.500704
	C11164	C	0.777559	0.852805	0.749594
	C11165	C	0.840064	0.915386	0.751246
	C11166	C	0.762796	0.846938	0.749708
	C11167	C	0.825327	0.909569	0.750967
	C11168	C	0.776255	0.962828	1.018304
	C11169	C	0.832588	0.861371	0.917809
	C11170	C	0.781439	0.946623	0.513893
	C11171	C	0.839690	0.864867	0.583377
	C11172	C	0.781107	0.946026	1.018247
	C11173	C	0.839727	0.864539	0.917889
	C11174	C	0.776594	0.963405	0.513845
	C11175	C	0.832565	0.861644	0.583015
	C11176	C	0.773773	0.851036	0.668039
	C11177	C	0.836241	0.914330	0.669664
	C11178	C	0.766540	0.849287	0.831322
	C11179	C	0.829103	0.911189	0.832716
	C11180	C	0.766626	0.848105	0.668015
	C11181	C	0.829085	0.911428	0.669433
	C11182	C	0.773703	0.852146	0.831211
	C11183	C	0.836254	0.914078	0.832757
	N11184	N	0.760835	1.014741	0.952161
	N11185	N	0.809615	0.859690	0.950855
	N11186	N	0.796479	0.893633	0.547897
	N11187	N	0.862735	0.862663	0.550056
	N11188	N	0.796406	0.893689	0.951321
	N11189	N	0.862703	0.862820	0.953058
	N11190	N	0.760892	1.014844	0.548064
	N11191	N	0.809652	0.859509	0.548741
	N11192	N	0.796151	0.861221	0.701146
	N11193	N	0.858630	0.923718	0.703424
	N11194	N	0.745540	0.828919	0.799139
	N11195	N	0.808009	0.891611	0.798490
	N11196	N	0.745460	0.828997	0.702587
	N11197	N	0.808110	0.891358	0.702294
	N11198	N	0.796184	0.860967	0.797954
	N11199	N	0.858636	0.923834	0.799984
	H11200	H	0.891212	0.121590	0.348969
	H11201	H	0.942767	-0.018253	0.348316
	H11202	H	0.916020	0.036378	0.151707
	H11203	H	0.979657	-0.007970	0.151790
	H11204	H	0.916193	0.036918	0.350068
	H11205	H	0.979542	-0.008472	0.347440
	H11206	H	0.891052	0.121500	0.149304
	H11207	H	0.942906	-0.017998	0.151657
	H11208	H	0.913415	-0.018558	0.099219
	H11209	H	0.975936	0.044555	0.098878
	H11210	H	0.877446	-0.036758	0.402793
	H11211	H	0.939959	0.025571	0.402095
	H11212	H	0.877264	-0.036033	0.100108
	H11213	H	0.939880	0.026087	0.098033
	H11214	H	0.913297	-0.017686	0.400953
	H11215	H	0.975802	0.045110	0.400415
	H11216	H	0.899708	0.094719	0.374439
	H11217	H	0.954771	-0.013797	0.351033
	H11218	H	0.907083	0.062715	0.002283
	H11219	H	0.967417	-0.009463	0.148643
	H11220	H	0.908274	0.065053	0.374554
	H11221	H	0.967273	-0.008635	0.350304
	H11222	H	0.898532	0.092344	0.000742
	H11223	H	0.954902	-0.014746	0.148193
	H11224	H	0.901484	-0.023569	0.104502
	H11225	H	0.963952	0.040141	0.103044
	H11226	H	0.888755	-0.026021	0.397587
	H11227	H	0.951373	0.035348	0.396061
	H11228	H	0.888889	-0.028615	0.104805
	H11229	H	0.951393	0.034864	0.103375
	H11230	H	0.901311	-0.020836	0.396468
	H11231	H	0.963918	0.040611	0.395525
	Co11232	Co	0.990038	0.062016	0.124529
	Co11233	Co	0.927529	-0.000680	0.124773
	Co11234	Co	0.864970	-0.063036	0.376552
	Co11235	Co	0.927486	-0.000605	0.375701
	C11236	C	0.890414	0.124457	0.422561
	C11237	C	0.941493	-0.017469	0.422955
	C11238	C	0.916887	0.033668	0.077810
	C11239	C	0.980887	-0.008902	0.077206
	C11240	C	0.916978	0.033968	0.423822
	C11241	C	0.980851	-0.009177	0.422131
	C11242	C	0.890359	0.124439	0.075735
	C11243	C	0.941583	-0.017312	0.077178
	C11244	C	0.914574	-0.017618	0.173006
	C11245	C	0.977092	0.045253	0.172753
	C11246	C	0.876431	-0.038356	0.328661
	C11247	C	0.938934	0.024149	0.327375
	C11248	C	0.876326	-0.037914	0.174258
	C11249	C	0.938910	0.024292	0.172630
	C11250	C	0.914505	-0.017206	0.327185
	C11251	C	0.977030	0.045563	0.326698
	C11252	C	0.893519	0.114091	0.499846
	C11253	C	0.946179	-0.017831	-0.000461
	C11254	C	0.913837	0.044254	0.501105
	C11255	C	0.976249	-0.007386	-0.000118
	C11256	C	0.910112	-0.019547	0.250007
	C11257	C	0.972632	0.043141	0.249624
	C11258	C	0.880410	-0.033096	0.251282
	C11259	C	0.942987	0.029190	0.249937
	C11260	C	0.898677	0.096458	0.500161
	C11261	C	0.953819	-0.015309	-0.000597
	C11262	C	0.908697	0.061901	0.501004
	C11263	C	0.968547	-0.008677	-0.000089
	C11264	C	0.902502	-0.022169	0.250422
	C11265	C	0.965035	0.040436	0.249320
	C11266	C	0.887741	-0.027904	0.251062
	C11267	C	0.950332	0.034351	0.249680
	C11268	C	0.901432	0.087950	0.429668
	C11269	C	0.957516	-0.013163	0.417140
	C11270	C	0.905633	0.069835	0.000991
	C11271	C	0.964751	-0.010407	0.082591
	C11272	C	0.906311	0.071192	0.430149
	C11273	C	0.964670	-0.010087	0.416940
	C11274	C	0.900783	0.086603	0.000269
	C11275	C	0.957610	-0.013566	0.082400
	C11276	C	0.898716	-0.024118	0.169018
	C11277	C	0.961249	0.039020	0.167535
	C11278	C	0.891481	-0.025441	0.332471
	C11279	C	0.954074	0.036383	0.331434
	C11280	C	0.891563	-0.026946	0.169336
	C11281	C	0.954103	0.036013	0.167851
	C11282	C	0.898640	-0.022630	0.332248
	C11283	C	0.961216	0.039371	0.331071
	N11284	N	0.885917	0.139766	0.451714
	N11285	N	0.934608	-0.015580	0.451898
	N11286	N	0.921439	0.018415	0.048345
	N11287	N	0.987730	-0.012280	0.048418
	N11288	N	0.921483	0.018629	0.452695
	N11289	N	0.987707	-0.012302	0.450765
	N11290	N	0.885885	0.139849	0.046519
	N11291	N	0.934678	-0.015475	0.048802
	N11292	N	0.921133	-0.014068	0.201801
	N11293	N	0.983640	0.048709	0.201431
	N11294	N	0.870563	-0.046234	0.299570
	N11295	N	0.933079	0.016173	0.298219
	N11296	N	0.870506	-0.046008	0.203262
	N11297	N	0.933059	0.016271	0.201877
	N11298	N	0.921096	-0.013873	0.298620
	N11299	N	0.983596	0.048912	0.298341
	H11300	H	0.891445	0.122245	0.848327
	H11301	H	0.942830	-0.017960	0.847580
	H11302	H	0.916010	0.036489	0.651910
	H11303	H	0.979602	-0.007873	0.651270
	H11304	H	0.916132	0.036709	0.849752
	H11305	H	0.979610	-0.008131	0.848030
	H11306	H	0.891291	0.121981	0.650221
	H11307	H	0.942863	-0.017764	0.652651
	H11308	H	0.913454	-0.018364	0.599617
	H11309	H	0.975843	0.044730	0.599344
	H11310	H	0.877534	-0.036444	0.902297
	H11311	H	0.939940	0.026094	0.902068
	H11312	H	0.877365	-0.036169	0.599238
	H11313	H	0.939944	0.026227	0.599054
	H11314	H	0.913451	-0.018084	0.900843
	H11315	H	0.975910	0.044353	0.900744
	H11316	H	0.900170	0.095563	0.997109
	H11317	H	0.954893	-0.013969	0.850551
	H11318	H	0.907663	0.063875	0.626960
	H11319	H	0.967457	-0.010242	0.649281
	H11320	H	0.908772	0.065959	0.998276
	H11321	H	0.967377	-0.008402	0.850901
	H11322	H	0.899017	0.093332	0.626140
	H11323	H	0.954942	-0.015414	0.649466
	H11324	H	0.901293	-0.020044	0.895753
	H11325	H	0.963996	0.039348	0.604605
	H11326	H	0.889089	-0.029534	0.604141
	H11327	H	0.951284	0.036104	0.895792
	H11328	H	0.888702	-0.025084	0.896221
	H11329	H	0.951442	0.034382	0.604805
	H11330	H	0.901653	-0.024369	0.604161
	H11331	H	0.963853	0.041243	0.895716
	Co11332	Co	0.989992	0.062144	0.624749
	Co11333	Co	0.927524	-0.000334	0.625122
	Co11334	Co	0.865071	-0.062941	0.876934
	Co11335	Co	0.927508	-0.000405	0.875364
	C11336	C	0.890555	0.124823	0.922046
	C11337	C	0.941552	-0.017222	0.922176
	C11338	C	0.916874	0.033749	0.578159
	C11339	C	0.980874	-0.008977	0.577048
	C11340	C	0.916930	0.033819	0.923360
	C11341	C	0.980871	-0.009093	0.922361
	C11342	C	0.890452	0.124623	0.576641
	C11343	C	0.941526	-0.017298	0.578207
	C11344	C	0.914645	-0.017526	0.673158
	C11345	C	0.977064	0.045270	0.673072
	C11346	C	0.876474	-0.038175	0.828157
	C11347	C	0.938904	0.024471	0.827875
	C11348	C	0.876397	-0.038028	0.673631
	C11349	C	0.938881	0.024609	0.673089
	C11350	C	0.914634	-0.017322	0.827225
	C11351	C	0.977122	0.045025	0.827116
	C11352	C	0.893546	0.114160	0.998919
	C11353	C	0.946145	-0.017939	0.500481
	C11354	C	0.913814	0.044193	1.000521
	C11355	C	0.976211	-0.007570	0.499705
	C11356	C	0.910189	-0.019608	0.750128
	C11357	C	0.972664	0.042949	0.750354
	C11358	C	0.880494	-0.033101	0.750730
	C11359	C	0.942952	0.029419	0.750594
	C11360	C	0.898682	0.096430	0.999135
	C11361	C	0.953780	-0.015491	0.500245
	C11362	C	0.908679	0.061895	1.000339
	C11363	C	0.968529	-0.008996	0.499918
	C11364	C	0.902590	-0.022203	0.750191
	C11365	C	0.965062	0.040365	0.750470
	C11366	C	0.887835	-0.027979	0.750336
	C11367	C	0.950295	0.034586	0.750429
	C11368	C	0.901699	0.088402	0.998306
	C11369	C	0.957592	-0.013073	0.916544
	C11370	C	0.905942	0.070455	0.571198
	C11371	C	0.964768	-0.011026	0.582974
	C11372	C	0.906555	0.071629	0.998962
	C11373	C	0.964734	-0.009906	0.916967
	C11374	C	0.901067	0.087222	0.570947
	C11375	C	0.957613	-0.014107	0.583096
	C11376	C	0.898675	-0.022183	0.831588
	C11377	C	0.961277	0.038699	0.669212
	C11378	C	0.891712	-0.027372	0.668639
	C11379	C	0.954024	0.036863	0.831512
	C11380	C	0.891503	-0.025003	0.831855
	C11381	C	0.954118	0.035864	0.669135
	C11382	C	0.898878	-0.024567	0.668750
	C11383	C	0.961190	0.039693	0.831562
	N11384	N	0.886012	0.140089	0.951120
	N11385	N	0.934667	-0.015373	0.950761
	N11386	N	0.921425	0.018497	0.548623
	N11387	N	0.987709	-0.012281	0.548353
	N11388	N	0.921443	0.018513	0.952427
	N11389	N	0.987728	-0.012327	0.951085
	N11390	N	0.885942	0.139870	0.547184
	N11391	N	0.934635	-0.015479	0.549741
	N11392	N	0.921184	-0.013911	0.701856
	N11393	N	0.983625	0.048721	0.701509
	N11394	N	0.870617	-0.046142	0.799353
	N11395	N	0.933037	0.016595	0.798611
	N11396	N	0.870572	-0.046056	0.703020
	N11397	N	0.933017	0.016681	0.702287
	N11398	N	0.921181	-0.013874	0.798334
	N11399	N	0.983663	0.048560	0.798165
	H11400	H	0.890138	0.230419	0.347491
	H11401	H	0.953653	0.184235	0.348441
	H11402	H	0.927027	0.239281	0.151559
	H11403	H	0.978728	0.099310	0.150706
	H11404	H	0.926997	0.239608	0.348300
	H11405	H	0.978674	0.099775	0.350047
	H11406	H	0.890229	0.229367	0.151088
	H11407	H	0.953788	0.184451	0.150521
	H11408	H	0.929833	0.195066	0.098167
	H11409	H	0.992364	0.257645	0.097425
	H11410	H	0.893894	0.176627	0.399980
	H11411	H	0.956353	0.239203	0.400708
	H11412	H	0.893848	0.176991	0.098501
	H11413	H	0.956444	0.238941	0.100562
	H11414	H	0.929732	0.195287	0.401549
	H11415	H	0.992403	0.257392	0.400350
	H11416	H	0.902428	0.230459	0.350530
	H11417	H	0.962395	0.158014	0.551362
	H11418	H	0.914986	0.236316	0.147678
	H11419	H	0.970508	0.126939	-0.068533
	H11420	H	0.914925	0.235656	0.351322
	H11421	H	0.971021	0.128511	0.551956
	H11422	H	0.902446	0.230938	0.147694
	H11423	H	0.961911	0.156434	-0.068718
	H11424	H	0.918391	0.186292	0.102863
	H11425	H	0.980988	0.248278	0.395142
	H11426	H	0.905795	0.181055	0.394504
	H11427	H	0.968257	0.243815	0.105202
	H11428	H	0.905826	0.180972	0.103165
	H11429	H	0.968401	0.243172	0.396004
	H11430	H	0.918349	0.186081	0.394947
	H11431	H	0.980795	0.248821	0.104829
	Co11432	Co	1.004798	0.283813	0.124184
	Co11433	Co	0.942342	0.221409	0.124206
	Co11434	Co	0.879853	0.158836	0.374535
	Co11435	Co	0.942251	0.221494	0.375326
	C11436	C	0.888894	0.231142	0.421430
	C11437	C	0.952851	0.187129	0.422206
	C11438	C	0.928332	0.238569	0.077162
	C11439	C	0.979507	0.096477	0.077066
	C11440	C	0.928267	0.238519	0.422746
	C11441	C	0.979461	0.096672	0.423280
	C11442	C	0.888983	0.230672	0.076827
	C11443	C	0.952965	0.187171	0.076650
	C11444	C	0.930855	0.196794	0.172303
	C11445	C	0.993335	0.259218	0.171962
	C11446	C	0.892685	0.176001	0.326241
	C11447	C	0.955178	0.238499	0.327105
	C11448	C	0.892664	0.176104	0.172170
	C11449	C	0.955220	0.238316	0.173734
	C11450	C	0.930796	0.196954	0.327212
	C11451	C	0.993396	0.258991	0.326373
	C11452	C	0.893527	0.229135	0.499010
	C11453	C	0.956039	0.176677	-0.000456
	C11454	C	0.923624	0.239057	0.500299
	C11455	C	0.976333	0.106773	-0.000005
	C11456	C	0.926768	0.191945	0.249507
	C11457	C	0.989321	0.254226	0.249357
	C11458	C	0.897107	0.178302	0.249032
	C11459	C	0.959605	0.240670	0.250621
	C11460	C	0.901230	0.230227	0.499325
	C11461	C	0.961163	0.158989	-0.000516
	C11462	C	0.915993	0.236634	0.499978
	C11463	C	0.971164	0.124399	-0.000347
	C11464	C	0.919427	0.186882	0.248872
	C11465	C	0.981947	0.249236	0.249995
	C11466	C	0.904694	0.181021	0.248640
	C11467	C	0.967200	0.243426	0.250807
	C11468	C	0.905058	0.231746	0.416721
	C11469	C	0.964044	0.151052	0.528716
	C11470	C	0.912290	0.235206	0.082187
	C11471	C	0.968620	0.133289	-0.038604
	C11472	C	0.912224	0.234759	0.417091
	C11473	C	0.968925	0.134318	0.528810
	C11474	C	0.905142	0.232143	0.082134
	C11475	C	0.963758	0.150069	-0.038742
	C11476	C	0.915688	0.185038	0.167270
	C11477	C	0.978213	0.247298	0.331287
	C11478	C	0.908484	0.182285	0.330183
	C11479	C	0.970971	0.244803	0.169622
	C11480	C	0.908520	0.182241	0.167300
	C11481	C	0.971058	0.244468	0.331659
	C11482	C	0.915646	0.185125	0.330304
	C11483	C	0.978111	0.247681	0.169104
	N11484	N	0.882072	0.234871	0.450327
	N11485	N	0.948306	0.202340	0.451644
	N11486	N	0.935210	0.236507	0.048571
	N11487	N	0.984023	0.081212	0.047581
	N11488	N	0.935156	0.236482	0.451232
	N11489	N	0.983962	0.081322	0.452409
	N11490	N	0.882139	0.234285	0.047710
	N11491	N	0.948444	0.202441	0.047365
	N11492	N	0.936709	0.204712	0.201575
	N11493	N	0.999213	0.267105	0.201063
	N11494	N	0.886144	0.172414	0.297491
	N11495	N	0.948630	0.234889	0.298632
	N11496	N	0.886138	0.172436	0.200846
	N11497	N	0.948646	0.234817	0.201988
	N11498	N	0.936663	0.204814	0.298163
	N11499	N	0.999252	0.266985	0.297338
	H11500	H	0.890320	0.230090	0.847273
	H11501	H	0.953735	0.184347	0.849026
	H11502	H	0.926973	0.238711	0.652424
	H11503	H	0.978607	0.099387	0.650976
	H11504	H	0.927031	0.239262	0.847327
	H11505	H	0.978416	0.098740	0.848756
	H11506	H	0.890162	0.229650	0.650823
	H11507	H	0.953805	0.184589	0.649847
	H11508	H	0.929966	0.194612	0.599087
	H11509	H	0.992341	0.257403	0.598013
	H11510	H	0.893922	0.177256	0.899339
	H11511	H	0.956488	0.238939	0.899630
	H11512	H	0.894037	0.176421	0.597983
	H11513	H	0.956409	0.239176	0.598151
	H11514	H	0.929863	0.195096	0.901773
	H11515	H	0.992383	0.256949	0.901260
	H11516	H	0.902489	0.230642	0.850977
	H11517	H	0.961862	0.156542	1.066924
	H11518	H	0.914876	0.235652	0.648285
	H11519	H	0.969948	0.125876	0.448608
	H11520	H	0.915005	0.235999	0.851396
	H11521	H	0.970422	0.126983	1.067701
	H11522	H	0.902349	0.230524	0.647452
	H11523	H	0.961390	0.155399	0.448172
	H11524	H	0.918507	0.186199	0.605627
	H11525	H	0.980900	0.248366	0.604223
	H11526	H	0.905816	0.180932	0.893496
	H11527	H	0.968359	0.243041	0.894412
	H11528	H	0.905921	0.181304	0.604704
	H11529	H	0.968312	0.243325	0.604375
	H11530	H	0.918410	0.185841	0.894287
	H11531	H	0.980941	0.248172	0.894408
	Co11532	Co	1.004784	0.283739	0.624727
	Co11533	Co	0.942318	0.221264	0.624886
	Co11534	Co	0.879896	0.159031	0.874232
	Co11535	Co	0.942370	0.221488	0.875340
	C11536	C	0.889014	0.231055	0.921992
	C11537	C	0.952942	0.187142	0.922591
	C11538	C	0.928266	0.238189	0.577704
	C11539	C	0.979427	0.096529	0.577393
	C11540	C	0.928331	0.238531	0.922066
	C11541	C	0.979354	0.096201	0.922766
	C11542	C	0.888887	0.230844	0.576337
	C11543	C	0.952933	0.187291	0.576389
	C11544	C	0.930950	0.196568	0.673222
	C11545	C	0.993406	0.258899	0.672001
	C11546	C	0.892723	0.176229	0.825840
	C11547	C	0.955257	0.238319	0.826296
	C11548	C	0.892762	0.175827	0.671639
	C11549	C	0.955204	0.238419	0.672072
	C11550	C	0.930908	0.196762	0.827767
	C11551	C	0.993398	0.258869	0.826991
	C11552	C	0.893642	0.229073	0.999520
	C11553	C	0.956007	0.176753	0.499311
	C11554	C	0.923706	0.239272	0.999645
	C11555	C	0.976361	0.107040	0.500267
	C11556	C	0.926856	0.191682	0.750400
	C11557	C	0.989354	0.253884	0.749560
	C11558	C	0.897183	0.178290	0.748773
	C11559	C	0.959647	0.240582	0.749133
	C11560	C	0.901354	0.230399	0.999538
	C11561	C	0.961182	0.159174	0.499511
	C11562	C	0.916069	0.236947	0.999619
	C11563	C	0.971225	0.124711	0.499890
	C11564	C	0.919523	0.186686	0.749948
	C11565	C	0.982004	0.248881	0.749519
	C11566	C	0.904759	0.180938	0.748909
	C11567	C	0.967250	0.243169	0.749166
	C11568	C	0.905158	0.231837	0.916959
	C11569	C	0.963700	0.150112	1.037306
	C11570	C	0.912197	0.234649	0.582273
	C11571	C	0.968352	0.132879	0.471003
	C11572	C	0.912299	0.235019	0.916930
	C11573	C	0.968565	0.133343	1.037439
	C11574	C	0.905039	0.231604	0.581998
	C11575	C	0.963462	0.149607	0.470865
	C11576	C	0.915763	0.185169	0.669065
	C11577	C	0.978225	0.247217	0.668460
	C11578	C	0.908548	0.182020	0.829814
	C11579	C	0.971075	0.244323	0.830253
	C11580	C	0.908595	0.182296	0.668509
	C11581	C	0.971069	0.244385	0.668223
	C11582	C	0.915727	0.184845	0.830372
	C11583	C	0.978233	0.247175	0.830448
	N11584	N	0.882159	0.234548	0.950632
	N11585	N	0.948431	0.202428	0.952037
	N11586	N	0.935146	0.236226	0.549207
	N11587	N	0.983939	0.081225	0.548240
	N11588	N	0.935204	0.236479	0.950694
	N11589	N	0.983925	0.081015	0.951935
	N11590	N	0.882054	0.234575	0.547749
	N11591	N	0.948359	0.202448	0.547028
	N11592	N	0.936805	0.204459	0.702363
	N11593	N	0.999268	0.266806	0.701478
	N11594	N	0.886190	0.172599	0.797031
	N11595	N	0.948690	0.234910	0.797932
	N11596	N	0.886212	0.172432	0.700310
	N11597	N	0.948665	0.234879	0.701217
	N11598	N	0.936777	0.204635	0.798523
	N11599	N	0.999263	0.266803	0.797922
	H11600	H	0.885425	0.323710	0.348150
	H11601	H	0.952651	0.292314	0.348567
	H11602	H	0.922229	0.332264	0.153237
	H11603	H	0.989527	0.301880	0.151942
	H11604	H	0.922271	0.332822	0.348390
	H11605	H	0.989487	0.301208	0.347245
	H11606	H	0.885372	0.323397	0.151566
	H11607	H	0.952690	0.292283	0.151892
	H11608	H	0.924606	0.288362	0.098699
	H11609	H	0.986913	0.351308	0.098925
	H11610	H	0.887887	0.274249	0.401781
	H11611	H	0.950528	0.336320	0.402526
	H11612	H	0.888097	0.273285	0.097476
	H11613	H	0.950545	0.336140	0.098919
	H11614	H	0.924423	0.289155	0.402184
	H11615	H	0.987028	0.350823	0.402825
	H11616	H	0.897514	0.326534	0.351830
	H11617	H	0.964928	0.292854	0.648336
	H11618	H	0.910011	0.331497	0.149337
	H11619	H	0.977472	0.298145	0.148557
	H11620	H	0.910002	0.331802	0.351599
	H11621	H	0.977495	0.297760	0.648055
	H11622	H	0.897403	0.326648	0.148315
	H11623	H	0.964934	0.293020	0.149029
	H11624	H	0.912575	0.283568	0.100898
	H11625	H	0.975108	0.345756	0.399959
	H11626	H	0.899928	0.278934	0.398909
	H11627	H	0.962502	0.341353	0.102189
	H11628	H	0.899914	0.279579	0.101063
	H11629	H	0.962379	0.342286	0.400184
	H11630	H	0.912609	0.282607	0.399501
	H11631	H	0.975159	0.345192	0.102079
	Co11632	Co	1.000040	0.374841	0.125686
	Co11633	Co	0.937507	0.312435	0.124934
	Co11634	Co	0.874907	0.250362	0.374654
	Co11635	Co	0.937457	0.312660	0.376292
	C11636	C	0.884124	0.324409	0.422279
	C11637	C	0.951402	0.293460	0.422984
	C11638	C	0.923512	0.331394	0.078593
	C11639	C	0.990824	0.300961	0.077262
	C11640	C	0.923513	0.331752	0.422858
	C11641	C	0.990783	0.300532	0.421950
	C11642	C	0.884113	0.324232	0.077200
	C11643	C	0.951436	0.293343	0.077509
	C11644	C	0.925645	0.290017	0.173027
	C11645	C	0.988097	0.352650	0.173491
	C11646	C	0.886833	0.272556	0.326875
	C11647	C	0.949411	0.334824	0.328048
	C11648	C	0.886936	0.272125	0.172030
	C11649	C	0.949419	0.334853	0.173385
	C11650	C	0.925570	0.290337	0.328132
	C11651	C	0.988159	0.352355	0.328474
	C11652	C	0.888747	0.323711	0.499876
	C11653	C	0.956048	0.291539	-0.000032
	C11654	C	0.918868	0.333441	0.500355
	C11655	C	0.986193	0.301397	-0.000136
	C11656	C	0.921296	0.286630	0.250528
	C11657	C	0.983832	0.348881	0.251074
	C11658	C	0.891182	0.275992	0.249708
	C11659	C	0.953725	0.338450	0.250853
	C11660	C	0.896395	0.325957	0.500034
	C11661	C	0.963767	0.292782	0.000013
	C11662	C	0.911172	0.332248	0.500225
	C11663	C	0.978548	0.299056	0.000131
	C11664	C	0.913733	0.283352	0.250192
	C11665	C	0.976263	0.345633	0.251203
	C11666	C	0.898763	0.279212	0.250031
	C11667	C	0.961300	0.341683	0.251146
	C11668	C	0.900202	0.327681	0.417450
	C11669	C	0.967607	0.294066	0.582527
	C11670	C	0.907318	0.330584	0.083406
	C11671	C	0.974761	0.297179	0.082799
	C11672	C	0.907358	0.330737	0.417622
	C11673	C	0.974767	0.297020	0.582236
	C11674	C	0.900158	0.327613	0.083068
	C11675	C	0.967604	0.294195	0.082862
	C11676	C	0.909869	0.282518	0.167059
	C11677	C	0.972392	0.344802	0.334062
	C11678	C	0.902640	0.280052	0.333003
	C11679	C	0.965197	0.342416	0.168277
	C11680	C	0.902629	0.280383	0.167205
	C11681	C	0.965139	0.342903	0.334226
	C11682	C	0.909892	0.282057	0.333124
	C11683	C	0.972443	0.344439	0.168222
	N11684	N	0.877253	0.326351	0.450775
	N11685	N	0.944570	0.297119	0.452076
	N11686	N	0.930361	0.327906	0.049826
	N11687	N	0.997711	0.298953	0.048371
	N11688	N	0.930376	0.328306	0.451558
	N11689	N	0.997675	0.298586	0.450819
	N11690	N	0.877229	0.326303	0.048529
	N11691	N	0.944580	0.296903	0.048991
	N11692	N	0.931875	0.296085	0.202292
	N11693	N	0.994364	0.358584	0.202593
	N11694	N	0.880659	0.266313	0.297650
	N11695	N	0.943184	0.328833	0.299132
	N11696	N	0.880701	0.266107	0.200534
	N11697	N	0.943197	0.328799	0.202145
	N11698	N	0.931824	0.296284	0.299318
	N11699	N	0.994395	0.358428	0.299283
	H11700	H	0.885405	0.323779	0.847629
	H11701	H	0.952634	0.292171	0.848115
	H11702	H	0.922237	0.332818	0.652034
	H11703	H	0.989424	0.301107	0.651726
	H11704	H	0.922242	0.332917	0.849360
	H11705	H	0.989496	0.301279	0.847646
	H11706	H	0.885417	0.323634	0.651758
	H11707	H	0.952686	0.292595	0.652247
	H11708	H	0.924432	0.289075	0.598153
	H11709	H	0.987009	0.351495	0.598492
	H11710	H	0.888003	0.273938	0.900797
	H11711	H	0.950548	0.336033	0.902247
	H11712	H	0.888013	0.273702	0.597831
	H11713	H	0.950435	0.336535	0.599310
	H11714	H	0.924528	0.288724	0.902474
	H11715	H	0.987100	0.350931	0.901952
	H11716	H	0.897510	0.326604	0.851775
	H11717	H	0.964901	0.293290	0.851038
	H11718	H	0.909972	0.331945	0.648661
	H11719	H	0.977375	0.298404	0.350738
	H11720	H	0.910041	0.331607	0.852851
	H11721	H	0.977442	0.298557	0.851352
	H11722	H	0.897423	0.327041	0.647842
	H11723	H	0.964840	0.293255	0.351250
	H11724	H	0.912546	0.283304	0.898879
	H11725	H	0.975120	0.345742	0.899995
	H11726	H	0.899961	0.279381	0.601586
	H11727	H	0.962450	0.341496	0.601858
	H11728	H	0.899879	0.279519	0.898455
	H11729	H	0.962418	0.342227	0.899787
	H11730	H	0.912605	0.283216	0.601717
	H11731	H	0.975094	0.345212	0.601511
	Co11732	Co	0.999969	0.375123	0.625369
	Co11733	Co	0.937454	0.312768	0.624741
	Co11734	Co	0.875039	0.249998	0.874552
	Co11735	Co	0.937465	0.312555	0.876202
	C11736	C	0.884141	0.324431	0.922321
	C11737	C	0.951411	0.293311	0.922649
	C11738	C	0.923503	0.331696	0.577860
	C11739	C	0.990755	0.300532	0.577209
	C11740	C	0.923512	0.331614	0.923697
	C11741	C	0.990805	0.300485	0.922236
	C11742	C	0.884129	0.324370	0.577240
	C11743	C	0.951433	0.293556	0.577924
	C11744	C	0.925569	0.290313	0.672601
	C11745	C	0.988129	0.352605	0.672953
	C11746	C	0.886890	0.272471	0.827069
	C11747	C	0.949414	0.334816	0.828058
	C11748	C	0.886906	0.272374	0.672115
	C11749	C	0.949373	0.335001	0.673569
	C11750	C	0.925611	0.290162	0.827784
	C11751	C	0.988188	0.352229	0.827155
	C11752	C	0.888737	0.323621	0.999977
	C11753	C	0.956052	0.291649	0.500224
	C11754	C	0.918879	0.333305	1.001295
	C11755	C	0.986148	0.301153	0.499383
	C11756	C	0.921300	0.286671	0.750185
	C11757	C	0.983848	0.348858	0.750096
	C11758	C	0.891186	0.275963	0.749685
	C11759	C	0.953702	0.338502	0.750965
	C11760	C	0.896382	0.325893	1.000257
	C11761	C	0.963780	0.292672	0.499858
	C11762	C	0.911146	0.332145	1.001179
	C11763	C	0.978512	0.298914	0.499380
	C11764	C	0.913735	0.283374	0.750349
	C11765	C	0.976281	0.345617	0.750738
	C11766	C	0.898763	0.279218	0.749926
	C11767	C	0.961288	0.341725	0.750956
	C11768	C	0.900198	0.327646	0.917787
	C11769	C	0.967585	0.294377	0.917317
	C11770	C	0.907334	0.330807	0.582446
	C11771	C	0.974713	0.297286	0.416694
	C11772	C	0.907345	0.330655	0.918396
	C11773	C	0.974739	0.297441	0.917361
	C11774	C	0.900167	0.327800	0.582502
	C11775	C	0.967561	0.294205	0.416968
	C11776	C	0.909860	0.282309	0.833012
	C11777	C	0.972408	0.344746	0.833766
	C11778	C	0.902652	0.280254	0.667544
	C11779	C	0.965156	0.342460	0.667852
	C11780	C	0.902617	0.280255	0.832612
	C11781	C	0.965151	0.342878	0.833791
	C11782	C	0.909883	0.282370	0.667734
	C11783	C	0.972402	0.344463	0.667942
	N11784	N	0.877240	0.326405	0.950704
	N11785	N	0.944565	0.296876	0.951476
	N11786	N	0.930359	0.328269	0.549124
	N11787	N	0.997644	0.298631	0.548764
	N11788	N	0.930376	0.327994	0.952394
	N11789	N	0.997692	0.298666	0.950541
	N11790	N	0.877267	0.326343	0.548748
	N11791	N	0.944594	0.297197	0.549524
	N11792	N	0.931787	0.296433	0.701804
	N11793	N	0.994366	0.358594	0.701471
	N11794	N	0.880653	0.266408	0.797883
	N11795	N	0.943164	0.328848	0.799234
	N11796	N	0.880672	0.266380	0.700803
	N11797	N	0.943131	0.329011	0.702151
	N11798	N	0.931837	0.296257	0.798755
	N11799	N	0.994415	0.358325	0.798841
	H11800	H	0.896485	0.525934	0.349515
	H11801	H	0.947971	0.385845	0.348551
	H11802	H	0.921337	0.440944	0.152526
	H11803	H	0.984819	0.395254	0.152510
	H11804	H	0.921378	0.440946	0.350436
	H11805	H	0.984739	0.394864	0.348645
	H11806	H	0.896439	0.525958	0.151881
	H11807	H	0.948078	0.386092	0.153202
	H11808	H	0.918609	0.385983	0.100890
	H11809	H	0.980977	0.449144	0.100980
	H11810	H	0.882571	0.367939	0.400879
	H11811	H	0.945092	0.430212	0.404117
	H11812	H	0.882687	0.367357	0.098345
	H11813	H	0.945137	0.430062	0.100668
	H11814	H	0.918500	0.386264	0.401277
	H11815	H	0.981048	0.448704	0.401819
	H11816	H	0.905051	0.499075	0.556372
	H11817	H	0.960088	0.389046	0.650103
	H11818	H	0.913445	0.469204	0.068797
	H11819	H	0.972688	0.394043	0.149119
	H11820	H	0.913578	0.469387	0.556483
	H11821	H	0.972646	0.394012	0.649587
	H11822	H	0.904798	0.498674	0.067973
	H11823	H	0.960119	0.389002	0.149524
	H11824	H	0.906669	0.382019	0.105639
	H11825	H	0.969162	0.443612	0.105627
	H11826	H	0.894013	0.376871	0.395098
	H11827	H	0.956498	0.440232	0.397519
	H11828	H	0.894097	0.376737	0.105117
	H11829	H	0.956597	0.438254	0.106402
	H11830	H	0.906584	0.382023	0.394854
	H11831	H	0.969060	0.445418	0.396784
	Co11832	Co	0.995185	0.466462	0.126579
	Co11833	Co	0.932712	0.403649	0.126241
	Co11834	Co	0.870119	0.341479	0.375065
	Co11835	Co	0.932691	0.403640	0.376770
	C11836	C	0.895646	0.528727	0.423158
	C11837	C	0.946666	0.386596	0.423231
	C11838	C	0.922144	0.438052	0.078746
	C11839	C	0.986088	0.394038	0.078196
	C11840	C	0.922115	0.437976	0.424297
	C11841	C	0.985998	0.393892	0.423165
	C11842	C	0.895591	0.528674	0.078001
	C11843	C	0.946730	0.386886	0.078618
	C11844	C	0.919805	0.386702	0.174051
	C11845	C	0.982224	0.449657	0.174503
	C11846	C	0.881571	0.366168	0.326767
	C11847	C	0.944093	0.428446	0.329492
	C11848	C	0.881623	0.365829	0.172367
	C11849	C	0.944112	0.428419	0.174793
	C11850	C	0.919756	0.386849	0.327705
	C11851	C	0.982252	0.449404	0.328469
	C11852	C	0.898732	0.518334	0.500172
	C11853	C	0.951333	0.386182	0.000916
	C11854	C	0.918944	0.448170	0.501524
	C11855	C	0.981467	0.395838	0.000758
	C11856	C	0.915325	0.384615	0.250659
	C11857	C	0.977813	0.447228	0.251467
	C11858	C	0.885655	0.370946	0.249525
	C11859	C	0.948152	0.433486	0.252247
	C11860	C	0.903872	0.500649	0.500161
	C11861	C	0.958991	0.388421	0.000851
	C11862	C	0.913824	0.465908	0.501094
	C11863	C	0.973753	0.394651	0.000696
	C11864	C	0.907734	0.381998	0.250248
	C11865	C	0.970225	0.444601	0.251290
	C11866	C	0.892987	0.376188	0.249800
	C11867	C	0.955473	0.438712	0.252037
	C11868	C	0.906683	0.492192	0.531546
	C11869	C	0.962733	0.390101	0.583704
	C11870	C	0.911447	0.475269	0.039345
	C11871	C	0.969964	0.392980	0.083412
	C11872	C	0.911511	0.475346	0.532091
	C11873	C	0.969887	0.393066	0.583771
	C11874	C	0.906563	0.491972	0.039213
	C11875	C	0.962798	0.390061	0.083510
	C11876	C	0.903952	0.380763	0.169410
	C11877	C	0.966432	0.442827	0.170079
	C11878	C	0.896741	0.377967	0.330823
	C11879	C	0.959218	0.440984	0.333111
	C11880	C	0.896795	0.377920	0.169073
	C11881	C	0.959274	0.439916	0.170631
	C11882	C	0.903903	0.380848	0.330785
	C11883	C	0.966384	0.443880	0.332677
	N11884	N	0.891057	0.543890	0.452499
	N11885	N	0.939773	0.388638	0.451977
	N11886	N	0.926650	0.422690	0.049449
	N11887	N	0.992904	0.390222	0.049383
	N11888	N	0.926623	0.422696	0.453595
	N11889	N	0.992857	0.390314	0.451888
	N11890	N	0.891087	0.543984	0.048585
	N11891	N	0.939838	0.388703	0.050530
	N11892	N	0.926342	0.390177	0.203055
	N11893	N	0.988783	0.453072	0.203253
	N11894	N	0.875709	0.358181	0.297721
	N11895	N	0.938253	0.420485	0.300019
	N11896	N	0.875724	0.358040	0.201471
	N11897	N	0.938279	0.420440	0.203704
	N11898	N	0.926314	0.390284	0.299464
	N11899	N	0.988803	0.452945	0.299859
	H11900	H	0.896320	0.525440	0.850564
	H11901	H	0.947935	0.385981	0.849334
	H11902	H	0.921144	0.440232	0.652603
	H11903	H	0.984823	0.395326	0.652607
	H11904	H	0.921258	0.440639	0.851329
	H11905	H	0.984805	0.394854	0.848886
	H11906	H	0.896404	0.525551	0.650942
	H11907	H	0.947978	0.386159	0.652929
	H11908	H	0.918516	0.386282	0.600263
	H11909	H	0.981045	0.448649	0.601414
	H11910	H	0.882495	0.368371	0.901566
	H11911	H	0.945102	0.429926	0.902784
	H11912	H	0.882653	0.367660	0.598804
	H11913	H	0.945003	0.430369	0.600349
	H11914	H	0.918498	0.386313	0.901445
	H11915	H	0.981076	0.448527	0.902709
	H11916	H	0.904254	0.497441	0.934612
	H11917	H	0.960063	0.389543	0.851957
	H11918	H	0.912696	0.467510	0.445435
	H11919	H	0.972524	0.394906	0.352347
	H11920	H	0.912827	0.467853	0.935278
	H11921	H	0.972583	0.394671	0.852102
	H11922	H	0.904161	0.497102	0.444348
	H11923	H	0.959973	0.389618	0.351957
	H11924	H	0.906558	0.382386	0.606307
	H11925	H	0.969183	0.443766	0.606102
	H11926	H	0.894007	0.376615	0.895377
	H11927	H	0.956405	0.440097	0.896144
	H11928	H	0.893961	0.377340	0.605794
	H11929	H	0.956636	0.438618	0.606304
	H11930	H	0.906612	0.381614	0.895401
	H11931	H	0.968997	0.445224	0.895780
	Co11932	Co	0.995110	0.466393	0.626901
	Co11933	Co	0.932654	0.403620	0.626199
	Co11934	Co	0.870136	0.341441	0.874657
	Co11935	Co	0.932662	0.403484	0.877232
	C11936	C	0.895541	0.528473	0.923917
	C11937	C	0.946672	0.386700	0.923675
	C11938	C	0.921996	0.437663	0.578761
	C11939	C	0.986047	0.394208	0.578198
	C11940	C	0.922092	0.437905	0.924804
	C11941	C	0.986090	0.393866	0.923223
	C11942	C	0.895609	0.528566	0.577430
	C11943	C	0.946674	0.386755	0.578473
	C11944	C	0.919725	0.386837	0.674240
	C11945	C	0.982231	0.449279	0.674931
	C11946	C	0.881480	0.366434	0.827480
	C11947	C	0.944082	0.428280	0.828913
	C11948	C	0.881559	0.366166	0.672894
	C11949	C	0.944038	0.428481	0.674420
	C11950	C	0.919702	0.386835	0.828020
	C11951	C	0.982235	0.449213	0.828864
	C11952	C	0.898629	0.518163	1.001163
	C11953	C	0.951287	0.385981	0.501007
	C11954	C	0.919029	0.448382	1.001706
	C11955	C	0.981405	0.395821	0.500964
	C11956	C	0.915266	0.384728	0.750918
	C11957	C	0.977828	0.446943	0.751889
	C11958	C	0.885587	0.371239	0.750494
	C11959	C	0.948096	0.433417	0.751540
	C11960	C	0.903801	0.500488	1.001389
	C11961	C	0.958930	0.388360	0.500960
	C11962	C	0.913867	0.466068	1.001794
	C11963	C	0.973672	0.394700	0.500874
	C11964	C	0.907667	0.382101	0.750794
	C11965	C	0.970230	0.444385	0.751450
	C11966	C	0.892926	0.376332	0.750700
	C11967	C	0.955445	0.438573	0.751250
	C11968	C	0.906219	0.491256	0.963911
	C11969	C	0.962760	0.390443	0.918020
	C11970	C	0.911023	0.474315	0.469765
	C11971	C	0.969827	0.393464	0.417890
	C11972	C	0.911118	0.474598	0.964245
	C11973	C	0.969919	0.393424	0.917745
	C11974	C	0.906203	0.491165	0.469227
	C11975	C	0.962683	0.390393	0.417940
	C11976	C	0.903837	0.381104	0.669853
	C11977	C	0.966448	0.442898	0.670324
	C11978	C	0.896707	0.377855	0.831600
	C11979	C	0.959170	0.440754	0.832113
	C11980	C	0.896669	0.378247	0.669750
	C11981	C	0.959278	0.440025	0.670262
	C11982	C	0.903869	0.380703	0.831650
	C11983	C	0.966331	0.443630	0.832137
	N11984	N	0.891049	0.543859	0.952807
	N11985	N	0.939791	0.388610	0.952808
	N11986	N	0.926548	0.422480	0.549159
	N11987	N	0.992878	0.390520	0.549150
	N11988	N	0.926617	0.422634	0.953898
	N11989	N	0.992925	0.390165	0.952186
	N11990	N	0.891041	0.543791	0.548339
	N11991	N	0.939784	0.388788	0.549991
	N11992	N	0.926301	0.390137	0.703035
	N11993	N	0.988802	0.452720	0.703367
	N11994	N	0.875654	0.358382	0.797981
	N11995	N	0.938225	0.420317	0.800051
	N11996	N	0.875682	0.358278	0.701775
	N11997	N	0.938206	0.420457	0.703484
	N11998	N	0.926279	0.390104	0.799756
	N11999	N	0.988797	0.452642	0.800199
	H12000	H	0.895366	0.632629	0.348932
	H12001	H	0.959045	0.588438	0.347923
	H12002	H	0.932220	0.643540	0.150598
	H12003	H	0.983912	0.503999	0.151623
	H12004	H	0.932101	0.642570	0.346775
	H12005	H	0.983923	0.503502	0.350058
	H12006	H	0.895481	0.633666	0.152043
	H12007	H	0.958899	0.588450	0.149342
	H12008	H	0.934950	0.599159	0.097235
	H12009	H	0.997565	0.661700	0.096278
	H12010	H	0.899181	0.579921	0.400948
	H12011	H	0.961653	0.642894	0.398699
	H12012	H	0.899067	0.580664	0.100454
	H12013	H	0.961618	0.643304	0.097888
	H12014	H	0.935085	0.598866	0.400471
	H12015	H	0.997561	0.661527	0.399208
	H12016	H	0.907389	0.635510	0.351273
	H12017	H	0.966843	0.560086	0.388575
	H12018	H	0.919996	0.640846	-0.149459
	H12019	H	0.975177	0.530129	-0.003150
	H12020	H	0.919901	0.640912	0.350555
	H12021	H	0.975460	0.530589	0.389637
	H12022	H	0.907468	0.635559	-0.149247
	H12023	H	0.966569	0.559481	-0.003432
	H12024	H	0.923682	0.588652	0.104698
	H12025	H	0.986242	0.651323	0.101816
	H12026	H	0.910917	0.586120	0.395830
	H12027	H	0.973522	0.648385	0.394271
	H12028	H	0.911117	0.583351	0.104852
	H12029	H	0.973668	0.646027	0.102750
	H12030	H	0.923469	0.591451	0.395235
	H12031	H	0.986080	0.653671	0.393543
	Co12032	Co	1.010017	0.688328	0.122851
	Co12033	Co	0.947505	0.625498	0.122884
	Co12034	Co	0.884971	0.562890	0.375753
	Co12035	Co	0.947501	0.625510	0.374019
	C12036	C	0.894090	0.633792	0.423359
	C12037	C	0.958105	0.591170	0.421947
	C12038	C	0.933482	0.642595	0.076266
	C12039	C	0.984654	0.500885	0.077863
	C12040	C	0.933430	0.642163	0.420798
	C12041	C	0.984643	0.500681	0.424095
	C12042	C	0.894168	0.634349	0.078338
	C12043	C	0.958089	0.591341	0.075544
	C12044	C	0.935998	0.600950	0.171736
	C12045	C	0.998601	0.663510	0.170527
	C12046	C	0.897908	0.579529	0.327588
	C12047	C	0.960447	0.642252	0.325063
	C12048	C	0.897845	0.579927	0.173616
	C12049	C	0.960410	0.642451	0.171560
	C12050	C	0.936098	0.600689	0.326412
	C12051	C	0.998627	0.663302	0.325189
	C12052	C	0.898748	0.632408	0.500659
	C12053	C	0.961214	0.580906	-0.001442
	C12054	C	0.928821	0.642831	0.498538
	C12055	C	0.981513	0.511048	0.000140
	C12056	C	0.931976	0.595760	0.249430
	C12057	C	0.994545	0.658391	0.247724
	C12058	C	0.902332	0.581968	0.250585
	C12059	C	0.964875	0.644578	0.248294
	C12060	C	0.906463	0.633719	0.500071
	C12061	C	0.966350	0.563251	-0.001013
	C12062	C	0.921213	0.640305	0.499188
	C12063	C	0.976373	0.528720	-0.000100
	C12064	C	0.924655	0.590622	0.250076
	C12065	C	0.987224	0.653195	0.247844
	C12066	C	0.909902	0.584629	0.250482
	C12067	C	0.972461	0.647254	0.248245
	C12068	C	0.910167	0.636012	0.416989
	C12069	C	0.968797	0.553927	0.437621
	C12070	C	0.917344	0.639303	-0.083585
	C12071	C	0.973527	0.536961	-0.001698
	C12072	C	0.917313	0.639210	0.416774
	C12073	C	0.973678	0.537228	0.438272
	C12074	C	0.910207	0.636135	-0.083230
	C12075	C	0.968664	0.553724	-0.002014
	C12076	C	0.920932	0.588104	0.169050
	C12077	C	0.983503	0.650779	0.166540
	C12078	C	0.913661	0.586640	0.331399
	C12079	C	0.976242	0.649098	0.329518
	C12080	C	0.913762	0.585168	0.169407
	C12081	C	0.976336	0.647811	0.166872
	C12082	C	0.920829	0.589577	0.331207
	C12083	C	0.983409	0.652046	0.329212
	N12084	N	0.887254	0.637221	0.452324
	N12085	N	0.953544	0.606398	0.450520
	N12086	N	0.940370	0.640579	0.047149
	N12087	N	0.989133	0.485458	0.049397
	N12088	N	0.940331	0.640494	0.448972
	N12089	N	0.989118	0.485340	0.453657
	N12090	N	0.887292	0.637457	0.050019
	N12091	N	0.953551	0.606533	0.046122
	N12092	N	0.941877	0.608807	0.200535
	N12093	N	1.004460	0.671384	0.199707
	N12094	N	0.891345	0.576239	0.298953
	N12095	N	0.953890	0.638792	0.296589
	N12096	N	0.891309	0.576402	0.202263
	N12097	N	0.953862	0.638917	0.200116
	N12098	N	0.941916	0.608699	0.296830
	N12099	N	1.004470	0.671270	0.296032
	H12100	H	0.895333	0.632690	0.849038
	H12101	H	0.958910	0.588379	0.847468
	H12102	H	0.932210	0.643482	0.650850
	H12103	H	0.983682	0.503224	0.651856
	H12104	H	0.932119	0.642415	0.846111
	H12105	H	0.983667	0.502764	0.849616
	H12106	H	0.895408	0.633600	0.653202
	H12107	H	0.958642	0.588131	0.650373
	H12108	H	0.934802	0.599814	0.597530
	H12109	H	0.997475	0.661670	0.596289
	H12110	H	0.899148	0.579968	0.900903
	H12111	H	0.961691	0.642620	0.898232
	H12112	H	0.898983	0.581032	0.598897
	H12113	H	0.961603	0.643012	0.598181
	H12114	H	0.935210	0.598301	0.899863
	H12115	H	0.997582	0.661438	0.899226
	H12116	H	0.907739	0.633343	1.148796
	H12117	H	0.967574	0.561902	1.001402
	H12118	H	0.920269	0.637860	0.648206
	H12119	H	0.975769	0.531724	0.611372
	H12120	H	0.920230	0.638641	1.147675
	H12121	H	0.976117	0.532255	1.002195
	H12122	H	0.907753	0.632750	0.648732
	H12123	H	0.967180	0.561229	0.610506
	H12124	H	0.923432	0.591658	0.895811
	H12125	H	0.986251	0.651425	0.603075
	H12126	H	0.911148	0.582911	0.604150
	H12127	H	0.973502	0.648123	0.893417
	H12128	H	0.910830	0.586535	0.895856
	H12129	H	0.973644	0.646243	0.603056
	H12130	H	0.923738	0.588142	0.604379
	H12131	H	0.986048	0.653483	0.893358
	Co12132	Co	1.009966	0.688168	0.622663
	Co12133	Co	0.947441	0.625618	0.622486
	Co12134	Co	0.884950	0.562734	0.875756
	Co12135	Co	0.947499	0.625503	0.873240
	C12136	C	0.894086	0.633874	0.923294
	C12137	C	0.958099	0.591256	0.921353
	C12138	C	0.933469	0.642573	0.576069
	C12139	C	0.984522	0.500553	0.578330
	C12140	C	0.933417	0.642120	0.921064
	C12141	C	0.984536	0.500270	0.923579
	C12142	C	0.894118	0.634315	0.578274
	C12143	C	0.957922	0.591004	0.576194
	C12144	C	0.935935	0.601080	0.671381
	C12145	C	0.998536	0.663300	0.670218
	C12146	C	0.897932	0.579532	0.827240
	C12147	C	0.960460	0.642086	0.824945
	C12148	C	0.897842	0.579983	0.673170
	C12149	C	0.960410	0.642313	0.671313
	C12150	C	0.936111	0.600567	0.825876
	C12151	C	0.998583	0.663113	0.824944
	C12152	C	0.898749	0.632556	1.000347
	C12153	C	0.961080	0.580676	0.499496
	C12154	C	0.928839	0.642979	0.998901
	C12155	C	0.981512	0.511099	0.501060
	C12156	C	0.931965	0.595902	0.749170
	C12157	C	0.994536	0.658194	0.747585
	C12158	C	0.902307	0.581967	0.750054
	C12159	C	0.964868	0.644391	0.748093
	C12160	C	0.906467	0.633956	0.999753
	C12161	C	0.966286	0.563113	0.499815
	C12162	C	0.921192	0.640553	0.999087
	C12163	C	0.976367	0.528744	0.500668
	C12164	C	0.924619	0.590730	0.749801
	C12165	C	0.987197	0.653035	0.748053
	C12166	C	0.909895	0.584722	0.749789
	C12167	C	0.972484	0.646971	0.748076
	C12168	C	0.910343	0.634940	1.082405
	C12169	C	0.969194	0.555008	1.000456
	C12170	C	0.917525	0.637630	0.582058
	C12171	C	0.973859	0.537911	0.562232
	C12172	C	0.917478	0.638078	1.081982
	C12173	C	0.974061	0.538234	1.001064
	C12174	C	0.910378	0.634477	0.582570
	C12175	C	0.968972	0.554583	0.562089
	C12176	C	0.920774	0.589873	0.831437
	C12177	C	0.983473	0.650701	0.666947
	C12178	C	0.913792	0.584944	0.668450
	C12179	C	0.976237	0.648869	0.829417
	C12180	C	0.913621	0.586969	0.831343
	C12181	C	0.976329	0.647747	0.667023
	C12182	C	0.920940	0.587848	0.668532
	C12183	C	0.983384	0.651804	0.829324
	N12184	N	0.887241	0.637290	0.952653
	N12185	N	0.953548	0.606486	0.950440
	N12186	N	0.940356	0.640758	0.547320
	N12187	N	0.989038	0.485226	0.549220
	N12188	N	0.940312	0.640304	0.949401
	N12189	N	0.989069	0.485101	0.953699
	N12190	N	0.887270	0.637578	0.549585
	N12191	N	0.953429	0.606280	0.546284
	N12192	N	0.941842	0.608903	0.700194
	N12193	N	1.004419	0.671241	0.699260
	N12194	N	0.891363	0.576056	0.798596
	N12195	N	0.953905	0.638674	0.796346
	N12196	N	0.891301	0.576347	0.702113
	N12197	N	0.953861	0.638829	0.699884
	N12198	N	0.941960	0.608562	0.796319
	N12199	N	1.004434	0.671138	0.795714
	H12200	H	0.890194	0.730082	0.348994
	H12201	H	0.957928	0.695298	0.347551
	H12202	H	0.927405	0.736199	0.150193
	H12203	H	0.994733	0.705778	0.150744
	H12204	H	0.927352	0.734656	0.346699
	H12205	H	0.994620	0.705512	0.346701
	H12206	H	0.890278	0.730777	0.151725
	H12207	H	0.957875	0.696215	0.150972
	H12208	H	0.929420	0.692330	0.097374
	H12209	H	0.992059	0.754045	0.097065
	H12210	H	0.893107	0.677069	0.402191
	H12211	H	0.955575	0.739130	0.401025
	H12212	H	0.892881	0.677618	0.098357
	H12213	H	0.955384	0.740392	0.097250
	H12214	H	0.929666	0.691230	0.400834
	H12215	H	0.991967	0.754505	0.400923
	H12216	H	0.902420	0.732352	0.351012
	H12217	H	0.970010	0.697692	0.350085
	H12218	H	0.915256	0.733686	0.148656
	H12219	H	0.982507	0.702483	-0.149888
	H12220	H	0.915032	0.736360	0.350340
	H12221	H	0.982539	0.703227	0.349907
	H12222	H	0.902618	0.729974	0.149374
	H12223	H	0.969974	0.697314	-0.149540
	H12224	H	0.917629	0.685793	0.100245
	H12225	H	0.980035	0.749130	0.099796
	H12226	H	0.904813	0.684536	0.398947
	H12227	H	0.967342	0.746222	0.398470
	H12228	H	0.904962	0.682281	0.100130
	H12229	H	0.967386	0.745540	0.099635
	H12230	H	0.917523	0.687951	0.398290
	H12231	H	0.980004	0.749874	0.398096
	Co12232	Co	1.005114	0.777522	0.123917
	Co12233	Co	0.942569	0.715641	0.123328
	Co12234	Co	0.880169	0.652677	0.376436
	Co12235	Co	0.942625	0.715018	0.373931
	C12236	C	0.889012	0.731380	0.423644
	C12237	C	0.956654	0.696490	0.422001
	C12238	C	0.928609	0.734779	0.075996
	C12239	C	0.995960	0.705022	0.076200
	C12240	C	0.928623	0.734006	0.420982
	C12241	C	0.995955	0.704738	0.421043
	C12242	C	0.889019	0.731775	0.077459
	C12243	C	0.956583	0.697001	0.076793
	C12244	C	0.930603	0.693488	0.171581
	C12245	C	0.993167	0.755566	0.171749
	C12246	C	0.891971	0.675591	0.327555
	C12247	C	0.954441	0.737968	0.326514
	C12248	C	0.891875	0.675790	0.173117
	C12249	C	0.954329	0.738677	0.171725
	C12250	C	0.930722	0.692866	0.326429
	C12251	C	0.993130	0.755781	0.326791
	C12252	C	0.893659	0.729790	0.500780
	C12253	C	0.961206	0.695165	-0.000653
	C12254	C	0.924042	0.736370	0.498784
	C12255	C	0.991298	0.705432	-0.001019
	C12256	C	0.926334	0.689762	0.249207
	C12257	C	0.988810	0.752329	0.249158
	C12258	C	0.896186	0.679601	0.249993
	C12259	C	0.958659	0.742173	0.249142
	C12260	C	0.901395	0.730768	0.500463
	C12261	C	0.968906	0.696526	-0.000785
	C12262	C	0.916303	0.735551	0.499692
	C12263	C	0.983655	0.702985	-0.000851
	C12264	C	0.918728	0.686877	0.249448
	C12265	C	0.981198	0.749478	0.248997
	C12266	C	0.903731	0.683056	0.249561
	C12267	C	0.966220	0.745523	0.249068
	C12268	C	0.905171	0.732741	0.417259
	C12269	C	0.972737	0.698605	0.416149
	C12270	C	0.912479	0.733535	0.082627
	C12271	C	0.979832	0.701337	-0.083655
	C12272	C	0.912382	0.734968	0.416802
	C12273	C	0.979875	0.701772	0.416088
	C12274	C	0.905263	0.731211	0.082676
	C12275	C	0.972686	0.698289	-0.083679
	C12276	C	0.914890	0.685456	0.166485
	C12277	C	0.977335	0.748363	0.165907
	C12278	C	0.907560	0.684752	0.332552
	C12279	C	0.970056	0.746853	0.332146
	C12280	C	0.907628	0.683610	0.166558
	C12281	C	0.970084	0.746454	0.165872
	C12282	C	0.914824	0.686603	0.332377
	C12283	C	0.977310	0.748809	0.332017
	N12284	N	0.882169	0.734936	0.452796
	N12285	N	0.949793	0.699977	0.450734
	N12286	N	0.935447	0.731001	0.046872
	N12287	N	1.002849	0.703182	0.047197
	N12288	N	0.935475	0.730488	0.449465
	N12289	N	1.002841	0.703092	0.449410
	N12290	N	0.882155	0.735001	0.049574
	N12291	N	0.949729	0.700270	0.047817
	N12292	N	0.936890	0.699204	0.200155
	N12293	N	0.999451	0.761278	0.200681
	N12294	N	0.885778	0.669251	0.299437
	N12295	N	0.948251	0.731694	0.297563
	N12296	N	0.885714	0.669420	0.202162
	N12297	N	0.948201	0.732066	0.200550
	N12298	N	0.936971	0.698814	0.297027
	N12299	N	0.999450	0.761333	0.297900
	H12300	H	0.890107	0.730076	0.848173
	H12301	H	0.957822	0.695451	0.847497
	H12302	H	0.927479	0.736260	0.650550
	H12303	H	0.994718	0.705877	0.650706
	H12304	H	0.927283	0.735112	0.846289
	H12305	H	0.994593	0.705483	0.846896
	H12306	H	0.890309	0.730731	0.652677
	H12307	H	0.957951	0.696126	0.651310
	H12308	H	0.929399	0.692474	0.596842
	H12309	H	0.992008	0.754374	0.596818
	H12310	H	0.893083	0.676941	0.902392
	H12311	H	0.955499	0.739615	0.900307
	H12312	H	0.892838	0.677431	0.599211
	H12313	H	0.955387	0.740279	0.597297
	H12314	H	0.929672	0.691534	0.900672
	H12315	H	0.992049	0.754433	0.900011
	H12316	H	0.902354	0.732667	0.849933
	H12317	H	0.970108	0.696229	1.148015
	H12318	H	0.915303	0.733800	0.649043
	H12319	H	0.982733	0.701471	0.647907
	H12320	H	0.914966	0.736510	0.849446
	H12321	H	0.982647	0.701275	1.148230
	H12322	H	0.902673	0.730009	0.649746
	H12323	H	0.970216	0.696070	0.647690
	H12324	H	0.917620	0.685075	0.600066
	H12325	H	0.980100	0.748512	0.599045
	H12326	H	0.904785	0.684665	0.898957
	H12327	H	0.967314	0.746441	0.898383
	H12328	H	0.904960	0.681414	0.601064
	H12329	H	0.967417	0.744976	0.599160
	H12330	H	0.917449	0.688285	0.898653
	H12331	H	0.979974	0.749953	0.897907
	Co12332	Co	1.005122	0.777765	0.623185
	Co12333	Co	0.942573	0.715553	0.623239
	Co12334	Co	0.880113	0.652702	0.877087
	Co12335	Co	0.942605	0.715369	0.873897
	C12336	C	0.888945	0.731192	0.922997
	C12337	C	0.956570	0.696573	0.921752
	C12338	C	0.928690	0.734918	0.575771
	C12339	C	0.995989	0.705106	0.576134
	C12340	C	0.928556	0.734355	0.920829
	C12341	C	0.995908	0.704725	0.921210
	C12342	C	0.889052	0.731658	0.578252
	C12343	C	0.956676	0.696997	0.576821
	C12344	C	0.930602	0.693548	0.671294
	C12345	C	0.993124	0.755731	0.670965
	C12346	C	0.891937	0.675555	0.828387
	C12347	C	0.954387	0.738316	0.826342
	C12348	C	0.891839	0.675835	0.673403
	C12349	C	0.954335	0.738558	0.671568
	C12350	C	0.930708	0.693164	0.826073
	C12351	C	0.993151	0.755648	0.825607
	C12352	C	0.893605	0.729795	0.999840
	C12353	C	0.961290	0.695034	0.499377
	C12354	C	0.923965	0.736359	0.998507
	C12355	C	0.991352	0.705493	0.498689
	C12356	C	0.926315	0.689930	0.748873
	C12357	C	0.988806	0.752214	0.748422
	C12358	C	0.896171	0.679470	0.750616
	C12359	C	0.958635	0.742259	0.748872
	C12360	C	0.901335	0.730694	0.999388
	C12361	C	0.968997	0.696456	0.499102
	C12362	C	0.916226	0.735523	0.999023
	C12363	C	0.983713	0.703110	0.498960
	C12364	C	0.918740	0.686813	0.749487
	C12365	C	0.981195	0.749252	0.748542
	C12366	C	0.903731	0.682847	0.750114
	C12367	C	0.966192	0.745517	0.748687
	C12368	C	0.905117	0.732747	0.916041
	C12369	C	0.972762	0.697611	1.081949
	C12370	C	0.912534	0.733549	0.582896
	C12371	C	0.980010	0.700701	0.581873
	C12372	C	0.912320	0.735070	0.915908
	C12373	C	0.979911	0.700707	1.081917
	C12374	C	0.905315	0.731369	0.583295
	C12375	C	0.972877	0.697522	0.581735
	C12376	C	0.914901	0.684975	0.666705
	C12377	C	0.977349	0.747938	0.665347
	C12378	C	0.907560	0.684774	0.832910
	C12379	C	0.970024	0.746942	0.831857
	C12380	C	0.907646	0.682992	0.666957
	C12381	C	0.970086	0.746109	0.665409
	C12382	C	0.914812	0.686733	0.832558
	C12383	C	0.977279	0.748793	0.831713
	N12384	N	0.882116	0.734760	0.951915
	N12385	N	0.949725	0.700004	0.950515
	N12386	N	0.935522	0.731050	0.546796
	N12387	N	1.002862	0.703246	0.547160
	N12388	N	0.935407	0.730740	0.949642
	N12389	N	1.002815	0.703040	0.949168
	N12390	N	0.882194	0.735099	0.550106
	N12391	N	0.949817	0.700341	0.547952
	N12392	N	0.936882	0.699289	0.699702
	N12393	N	0.999390	0.761611	0.699645
	N12394	N	0.885739	0.669183	0.799697
	N12395	N	0.948215	0.731928	0.797477
	N12396	N	0.885684	0.669380	0.702889
	N12397	N	0.948161	0.732138	0.700431
	N12398	N	0.936957	0.698988	0.797193
	N12399	N	0.999364	0.761667	0.796618
	H12400	H	0.884997	0.826919	0.348339
	H12401	H	0.952747	0.792046	0.347827
	H12402	H	0.922202	0.832893	0.150334
	H12403	H	0.989903	0.797688	0.151598
	H12404	H	0.922161	0.831032	0.346535
	H12405	H	0.989832	0.797745	0.347189
	H12406	H	0.885131	0.827312	0.153206
	H12407	H	0.952695	0.793187	0.151594
	H12408	H	0.924345	0.789088	0.097201
	H12409	H	0.986923	0.851699	0.097383
	H12410	H	0.887999	0.774326	0.402513
	H12411	H	0.950610	0.835726	0.401304
	H12412	H	0.887883	0.774232	0.099357
	H12413	H	0.950355	0.837380	0.098234
	H12414	H	0.924701	0.787523	0.400409
	H12415	H	0.987096	0.850614	0.400907
	H12416	H	0.897207	0.829158	0.349774
	H12417	H	0.965112	0.792976	0.648697
	H12418	H	0.910139	0.829969	0.148941
	H12419	H	0.977613	0.797575	-0.149596
	H12420	H	0.909846	0.832881	0.349556
	H12421	H	0.977733	0.796797	0.649120
	H12422	H	0.897504	0.826128	0.149828
	H12423	H	0.964909	0.794010	-0.149641
	H12424	H	0.912620	0.781533	0.099672
	H12425	H	0.975021	0.845893	0.398432
	H12426	H	0.899861	0.780895	0.399705
	H12427	H	0.962318	0.842238	0.099660
	H12428	H	0.899937	0.778380	0.100361
	H12429	H	0.962371	0.842255	0.398798
	H12430	H	0.912523	0.784385	0.399476
	H12431	H	0.975003	0.845870	0.099597
	Co12432	Co	0.999981	0.875215	0.123835
	Co12433	Co	0.937439	0.812874	0.123522
	Co12434	Co	0.875009	0.750131	0.376673
	Co12435	Co	0.937542	0.812058	0.374188
	C12436	C	0.883784	0.828073	0.423184
	C12437	C	0.951568	0.793492	0.422336
	C12438	C	0.923462	0.831600	0.076035
	C12439	C	0.991129	0.796608	0.077250
	C12440	C	0.923457	0.830494	0.420994
	C12441	C	0.991133	0.796724	0.421694
	C12442	C	0.883841	0.828319	0.078602
	C12443	C	0.951490	0.794117	0.077148
	C12444	C	0.925571	0.790177	0.171259
	C12445	C	0.988055	0.852926	0.171640
	C12446	C	0.886857	0.772813	0.328317
	C12447	C	0.949410	0.834689	0.327134
	C12448	C	0.886807	0.772832	0.173551
	C12449	C	0.949247	0.835560	0.172140
	C12450	C	0.925740	0.789392	0.325970
	C12451	C	0.988122	0.852447	0.326304
	C12452	C	0.888484	0.826317	0.500315
	C12453	C	0.956099	0.792225	-0.000199
	C12454	C	0.918846	0.832742	0.498455
	C12455	C	0.986511	0.798639	-0.000227
	C12456	C	0.921327	0.786173	0.248854
	C12457	C	0.983778	0.849071	0.248934
	C12458	C	0.891156	0.776412	0.250697
	C12459	C	0.953609	0.838846	0.249439
	C12460	C	0.896216	0.827186	0.499699
	C12461	C	0.963844	0.793309	-0.000256
	C12462	C	0.911112	0.831888	0.499098
	C12463	C	0.978741	0.797966	-0.000175
	C12464	C	0.913760	0.783056	0.249342
	C12465	C	0.976193	0.845951	0.248957
	C12466	C	0.898751	0.779481	0.250090
	C12467	C	0.961188	0.842111	0.249150
	C12468	C	0.899958	0.829281	0.416473
	C12469	C	0.967786	0.793971	0.582561
	C12470	C	0.907354	0.829746	0.082741
	C12471	C	0.974880	0.796897	-0.083463
	C12472	C	0.907191	0.831481	0.416071
	C12473	C	0.974998	0.796326	0.582817
	C12474	C	0.900130	0.827411	0.083070
	C12475	C	0.967663	0.794751	-0.083440
	C12476	C	0.909911	0.781460	0.166360
	C12477	C	0.972314	0.845013	0.332211
	C12478	C	0.902601	0.781169	0.333195
	C12479	C	0.965040	0.843071	0.165854
	C12480	C	0.902637	0.779757	0.166620
	C12481	C	0.965057	0.843123	0.332434
	C12482	C	0.909871	0.782922	0.332819
	C12483	C	0.972310	0.844907	0.165886
	N12484	N	0.876969	0.831773	0.452977
	N12485	N	0.944707	0.797005	0.450929
	N12486	N	0.930286	0.828071	0.046924
	N12487	N	0.997969	0.792887	0.048189
	N12488	N	0.930307	0.827280	0.449663
	N12489	N	0.997982	0.793102	0.450001
	N12490	N	0.877001	0.832085	0.050078
	N12491	N	0.944614	0.797366	0.048372
	N12492	N	0.931809	0.796206	0.199785
	N12493	N	0.994300	0.858899	0.200399
	N12494	N	0.880633	0.766621	0.299452
	N12495	N	0.943213	0.828510	0.297945
	N12496	N	0.880592	0.766700	0.202581
	N12497	N	0.943067	0.829178	0.201140
	N12498	N	0.931921	0.795683	0.296791
	N12499	N	0.994339	0.858680	0.297397
	H12500	H	0.885050	0.826893	0.849360
	H12501	H	0.952666	0.792370	0.847933
	H12502	H	0.922247	0.833115	0.650228
	H12503	H	0.989962	0.798034	0.651056
	H12504	H	0.922102	0.831359	0.846715
	H12505	H	0.989853	0.798000	0.847782
	H12506	H	0.885195	0.827278	0.652523
	H12507	H	0.952804	0.793453	0.651980
	H12508	H	0.924423	0.789102	0.596802
	H12509	H	0.987019	0.851320	0.597503
	H12510	H	0.888086	0.773596	0.902379
	H12511	H	0.950596	0.835921	0.901995
	H12512	H	0.887765	0.774863	0.598467
	H12513	H	0.950315	0.837505	0.598223
	H12514	H	0.924709	0.787586	0.899954
	H12515	H	0.987114	0.850993	0.901146
	H12516	H	0.897213	0.828627	0.850418
	H12517	H	0.964997	0.793587	1.149475
	H12518	H	0.910125	0.830134	0.648544
	H12519	H	0.977646	0.798097	0.350370
	H12520	H	0.909854	0.832518	0.849957
	H12521	H	0.977657	0.797371	1.149252
	H12522	H	0.897485	0.826265	0.649122
	H12523	H	0.964957	0.794618	0.350298
	H12524	H	0.912637	0.781582	0.599909
	H12525	H	0.975029	0.846451	0.898812
	H12526	H	0.899820	0.780872	0.899157
	H12527	H	0.962450	0.841672	0.600168
	H12528	H	0.899958	0.778209	0.600303
	H12529	H	0.962375	0.843038	0.898951
	H12530	H	0.912504	0.784158	0.898779
	H12531	H	0.975172	0.844889	0.600627
	Co12532	Co	0.999986	0.875356	0.623570
	Co12533	Co	0.937488	0.812782	0.623873
	Co12534	Co	0.874950	0.750132	0.876312
	Co12535	Co	0.937495	0.812254	0.874559
	C12536	C	0.883801	0.828090	0.923552
	C12537	C	0.951472	0.793542	0.922421
	C12538	C	0.923505	0.831584	0.575806
	C12539	C	0.991185	0.796967	0.576395
	C12540	C	0.923416	0.830757	0.920917
	C12541	C	0.991108	0.796818	0.922213
	C12542	C	0.883877	0.828226	0.578444
	C12543	C	0.951567	0.794174	0.577269
	C12544	C	0.925580	0.790224	0.671317
	C12545	C	0.988128	0.852622	0.672084
	C12546	C	0.886887	0.772477	0.828114
	C12547	C	0.949436	0.834779	0.827468
	C12548	C	0.886740	0.773113	0.673274
	C12549	C	0.949285	0.835572	0.672512
	C12550	C	0.925708	0.789545	0.825967
	C12551	C	0.988136	0.852675	0.826953
	C12552	C	0.888477	0.826254	1.000990
	C12553	C	0.956203	0.792156	0.499775
	C12554	C	0.918789	0.832813	0.998654
	C12555	C	0.986537	0.798683	0.499249
	C12556	C	0.921339	0.786274	0.748735
	C12557	C	0.983849	0.849015	0.749478
	C12558	C	0.891107	0.776367	0.750365
	C12559	C	0.953649	0.838849	0.749816
	C12560	C	0.896198	0.826898	1.000300
	C12561	C	0.963917	0.793130	0.499484
	C12562	C	0.911078	0.831722	0.999302
	C12563	C	0.978805	0.797846	0.499625
	C12564	C	0.913735	0.783136	0.749224
	C12565	C	0.976245	0.845927	0.749521
	C12566	C	0.898714	0.779430	0.749962
	C12567	C	0.961239	0.842058	0.749417
	C12568	C	0.899957	0.828815	0.916696
	C12569	C	0.967701	0.794445	1.083025
	C12570	C	0.907348	0.829880	0.582420
	C12571	C	0.974927	0.797141	0.416369
	C12572	C	0.907181	0.831105	0.916286
	C12573	C	0.974916	0.796631	1.083079
	C12574	C	0.900126	0.827662	0.582644
	C12575	C	0.967711	0.794909	0.416486
	C12576	C	0.909887	0.781463	0.666379
	C12577	C	0.972340	0.845337	0.832545
	C12578	C	0.902573	0.781053	0.832876
	C12579	C	0.965135	0.842682	0.666532
	C12580	C	0.902633	0.779629	0.666672
	C12581	C	0.965091	0.843447	0.832483
	C12582	C	0.909832	0.782853	0.832511
	C12583	C	0.972387	0.844598	0.666569
	N12584	N	0.876964	0.831938	0.952529
	N12585	N	0.944614	0.796993	0.951032
	N12586	N	0.930347	0.827912	0.546804
	N12587	N	0.998007	0.793268	0.547357
	N12588	N	0.930262	0.827594	0.949871
	N12589	N	0.997953	0.793047	0.950804
	N12590	N	0.877030	0.831867	0.550248
	N12591	N	0.944708	0.797508	0.548417
	N12592	N	0.931819	0.796233	0.700051
	N12593	N	0.994343	0.858826	0.700778
	N12594	N	0.880601	0.766586	0.799676
	N12595	N	0.943184	0.828782	0.798684
	N12596	N	0.880531	0.766887	0.702751
	N12597	N	0.943106	0.829174	0.701466
	N12598	N	0.931887	0.795869	0.797040
	N12599	N	0.994354	0.858823	0.797831
	H12600	H	0.880233	0.919205	0.348871
	H12601	H	0.947495	0.889415	0.347375
	H12602	H	0.917171	0.929275	0.151069
	H12603	H	0.984753	0.895543	0.150977
	H12604	H	0.917022	0.929361	0.347706
	H12605	H	0.984616	0.894583	0.347222
	H12606	H	0.880388	0.920143	0.153817
	H12607	H	0.947667	0.889789	0.151442
	H12608	H	0.919440	0.885514	0.098347
	H12609	H	0.981997	0.948015	0.097065
	H12610	H	0.882987	0.870581	0.402980
	H12611	H	0.945401	0.933295	0.401161
	H12612	H	0.882758	0.871176	0.098665
	H12613	H	0.945432	0.933399	0.096983
	H12614	H	0.919521	0.885215	0.401156
	H12615	H	0.982007	0.947877	0.400687
	H12616	H	0.892168	0.924291	0.352201
	H12617	H	0.959751	0.890984	0.349700
	H12618	H	0.904795	0.929632	-0.148921
	H12619	H	0.972499	0.894757	-0.150790
	H12620	H	0.904677	0.929764	0.351976
	H12621	H	0.972379	0.894697	0.349895
	H12622	H	0.892296	0.924294	-0.148557
	H12623	H	0.959869	0.890877	-0.150816
	H12624	H	0.907689	0.877696	0.100307
	H12625	H	0.970085	0.941490	0.099081
	H12626	H	0.894821	0.877520	0.399469
	H12627	H	0.957397	0.938776	0.398998
	H12628	H	0.895010	0.874274	0.100485
	H12629	H	0.957401	0.938118	0.099595
	H12630	H	0.907447	0.880942	0.399050
	H12631	H	0.970086	0.942238	0.399052
	Co12632	Co	0.994896	0.972318	0.124040
	Co12633	Co	0.932401	0.909674	0.123468
	Co12634	Co	0.869843	0.847313	0.377212
	Co12635	Co	0.932300	0.909914	0.374450
	C12636	C	0.878942	0.919962	0.423687
	C12637	C	0.946258	0.890592	0.421645
	C12638	C	0.918387	0.928426	0.076960
	C12639	C	0.986009	0.894137	0.076396
	C12640	C	0.918274	0.928391	0.422382
	C12641	C	0.985910	0.893643	0.421667
	C12642	C	0.879068	0.920542	0.078809
	C12643	C	0.946399	0.890894	0.077071
	C12644	C	0.920553	0.887061	0.172368
	C12645	C	0.983062	0.949496	0.171712
	C12646	C	0.881846	0.869298	0.328473
	C12647	C	0.944316	0.931982	0.326619
	C12648	C	0.881718	0.869590	0.173753
	C12649	C	0.944322	0.932045	0.171708
	C12650	C	0.920601	0.886795	0.326773
	C12651	C	0.983072	0.949425	0.326436
	C12652	C	0.883596	0.919421	0.500983
	C12653	C	0.951040	0.889025	-0.000574
	C12654	C	0.913674	0.930086	0.499819
	C12655	C	0.981371	0.895719	-0.001205
	C12656	C	0.916290	0.883122	0.249673
	C12657	C	0.978810	0.945564	0.249067
	C12658	C	0.886139	0.872799	0.250646
	C12659	C	0.948630	0.935439	0.249319
	C12660	C	0.891241	0.921897	0.500898
	C12661	C	0.958763	0.889903	-0.000778
	C12662	C	0.905987	0.928665	0.500537
	C12663	C	0.973656	0.894670	-0.001028
	C12664	C	0.908735	0.879678	0.249675
	C12665	C	0.971242	0.942112	0.249198
	C12666	C	0.893737	0.875722	0.249999
	C12667	C	0.956230	0.938377	0.249409
	C12668	C	0.894924	0.924719	0.418246
	C12669	C	0.962462	0.891399	0.416100
	C12670	C	0.902171	0.927846	-0.082714
	C12671	C	0.969790	0.893716	-0.084271
	C12672	C	0.902072	0.927937	0.418023
	C12673	C	0.969688	0.893655	0.416207
	C12674	C	0.895034	0.924733	-0.082333
	C12675	C	0.962572	0.891440	-0.084109
	C12676	C	0.904937	0.877585	0.166794
	C12677	C	0.967372	0.940918	0.165772
	C12678	C	0.897549	0.877642	0.332861
	C12679	C	0.960111	0.939476	0.332580
	C12680	C	0.897683	0.875565	0.167013
	C12681	C	0.960113	0.939059	0.165960
	C12682	C	0.904791	0.879635	0.332753
	C12683	C	0.967371	0.941354	0.332535
	N12684	N	0.872063	0.921956	0.452502
	N12685	N	0.939438	0.894405	0.450731
	N12686	N	0.925229	0.925056	0.048009
	N12687	N	0.992862	0.890627	0.047737
	N12688	N	0.925132	0.925141	0.450725
	N12689	N	0.992760	0.890240	0.450362
	N12690	N	0.872181	0.922257	0.050314
	N12691	N	0.939558	0.894437	0.048100
	N12692	N	0.926752	0.893335	0.200945
	N12693	N	0.989222	0.955946	0.200784
	N12694	N	0.875541	0.863664	0.300356
	N12695	N	0.938060	0.926128	0.297687
	N12696	N	0.875473	0.863747	0.203088
	N12697	N	0.938049	0.926143	0.200385
	N12698	N	0.926767	0.893246	0.297749
	N12699	N	0.989197	0.956028	0.297662
	H12700	H	0.880312	0.919108	0.849656
	H12701	H	0.947644	0.889601	0.847645
	H12702	H	0.917085	0.929663	0.651710
	H12703	H	0.984658	0.894898	0.651317
	H12704	H	0.917094	0.929323	0.847939
	H12705	H	0.984751	0.894699	0.847103
	H12706	H	0.880293	0.919521	0.652827
	H12707	H	0.947556	0.890057	0.651155
	H12708	H	0.919366	0.885948	0.598255
	H12709	H	0.981975	0.948097	0.598745
	H12710	H	0.882989	0.870703	0.902682
	H12711	H	0.945511	0.933070	0.901400
	H12712	H	0.882975	0.870895	0.599328
	H12713	H	0.945452	0.933429	0.597560
	H12714	H	0.919662	0.884801	0.901025
	H12715	H	0.982071	0.947812	0.901841
	H12716	H	0.892557	0.921873	1.149872
	H12717	H	0.959962	0.889834	1.149227
	H12718	H	0.904971	0.927081	0.649379
	H12719	H	0.972472	0.893298	0.648859
	H12720	H	0.905085	0.927198	1.149582
	H12721	H	0.972573	0.893683	1.148892
	H12722	H	0.892479	0.921592	0.649532
	H12723	H	0.959809	0.889481	0.648422
	H12724	H	0.907609	0.880447	0.899653
	H12725	H	0.970184	0.941353	0.600576
	H12726	H	0.895071	0.874528	0.601483
	H12727	H	0.957407	0.938868	0.899274
	H12728	H	0.894932	0.876946	0.899944
	H12729	H	0.957530	0.937891	0.600209
	H12730	H	0.907714	0.878180	0.601127
	H12731	H	0.970064	0.942476	0.899562
	Co12732	Co	0.994877	0.972447	0.624276
	Co12733	Co	0.932339	0.910164	0.624100
	Co12734	Co	0.869872	0.847602	0.876753
	Co12735	Co	0.932425	0.909868	0.874692
	C12736	C	0.879049	0.920037	0.923739
	C12737	C	0.946381	0.890803	0.922120
	C12738	C	0.918321	0.928619	0.577010
	C12739	C	0.985937	0.893890	0.576945
	C12740	C	0.918358	0.928365	0.922009
	C12741	C	0.986004	0.893823	0.921408
	C12742	C	0.878980	0.920199	0.578705
	C12743	C	0.946295	0.890875	0.576814
	C12744	C	0.920559	0.887209	0.672224
	C12745	C	0.983102	0.949479	0.672679
	C12746	C	0.881884	0.869448	0.828369
	C12747	C	0.944372	0.931885	0.826805
	C12748	C	0.881871	0.869483	0.673353
	C12749	C	0.944361	0.932011	0.671789
	C12750	C	0.920708	0.886607	0.826904
	C12751	C	0.983124	0.949341	0.827321
	C12752	C	0.883683	0.919698	1.001273
	C12753	C	0.950925	0.888849	0.499138
	C12754	C	0.913757	0.930101	0.999664
	C12755	C	0.981288	0.895424	0.499405
	C12756	C	0.916374	0.883006	0.749918
	C12757	C	0.978846	0.945575	0.750131
	C12758	C	0.886228	0.872760	0.750916
	C12759	C	0.948699	0.935271	0.749317
	C12760	C	0.891334	0.922140	1.000819
	C12761	C	0.958657	0.889686	0.498999
	C12762	C	0.906050	0.928715	1.000255
	C12763	C	0.973564	0.894469	0.499420
	C12764	C	0.908810	0.879536	0.750344
	C12765	C	0.971283	0.942136	0.750110
	C12766	C	0.893830	0.875649	0.750785
	C12767	C	0.956293	0.938182	0.749685
	C12768	C	0.895188	0.923363	1.083815
	C12769	C	0.962626	0.890833	1.082567
	C12770	C	0.902245	0.926312	0.583478
	C12771	C	0.969740	0.892816	0.582478
	C12772	C	0.902325	0.926531	1.083589
	C12773	C	0.969852	0.893108	1.082554
	C12774	C	0.895107	0.923163	0.583572
	C12775	C	0.962516	0.890527	0.582158
	C12776	C	0.904923	0.879119	0.833490
	C12777	C	0.967450	0.940859	0.666847
	C12778	C	0.897746	0.875889	0.667731
	C12779	C	0.960136	0.939390	0.833075
	C12780	C	0.897664	0.877253	0.833589
	C12781	C	0.960199	0.938883	0.666657
	C12782	C	0.904987	0.877843	0.667374
	C12783	C	0.967378	0.941383	0.833254
	N12784	N	0.872158	0.921948	0.952383
	N12785	N	0.939541	0.894343	0.950721
	N12786	N	0.925165	0.925290	0.548188
	N12787	N	0.992777	0.890434	0.547980
	N12788	N	0.925209	0.925031	0.950723
	N12789	N	0.992836	0.890384	0.950255
	N12790	N	0.872087	0.922092	0.550361
	N12791	N	0.939464	0.894607	0.547942
	N12792	N	0.926740	0.893618	0.700973
	N12793	N	0.989263	0.955909	0.701415
	N12794	N	0.875597	0.863725	0.799526
	N12795	N	0.938069	0.926252	0.798049
	N12796	N	0.875571	0.863790	0.702334
	N12797	N	0.938074	0.926292	0.700768
	N12798	N	0.926840	0.893235	0.797638
	N12799	N	0.989275	0.955824	0.798229
