data_Molecule from HDF5

_cell_length_a		146.392348
_cell_length_b		13.363664
_cell_length_c		75.394918
_cell_angle_alpha	89.996843
_cell_angle_beta	93.621866
_cell_angle_gamma	89.996210
_symmetry_space_group_name_H-M	'P 1'
_symmetry_Int_Tables_number		1

loop_
	_symmetry_equiv_pos_as_xyz
	x,y,z

loop_
	_atom_site_label
	_atom_site_type_symbol
	_atom_site_fract_x
	_atom_site_fract_y
	_atom_site_fract_z
	Al0	Al	0.055894	-0.500625	0.097376
	Al1	Al	0.055862	-0.249825	0.097294
	Al2	Al	-0.000045	-0.250116	-0.000038
	Al3	Al	-0.000041	-0.500013	-0.000006
	O4	O	0.066336	-0.459147	0.112300
	O5	O	0.055822	-0.375063	0.086069
	O6	O	0.056219	-0.125447	0.108498
	O7	O	0.113975	-0.459950	0.111691
	O8	O	0.046450	-0.459757	0.112025
	O9	O	0.002909	-0.459436	0.145006
	O10	O	0.046398	-0.291385	0.111981
	O11	O	0.046306	-0.209278	0.080348
	O12	O	0.008655	-0.208775	0.018704
	O13	O	0.066334	-0.290628	0.112300
	O14	O	0.065281	-0.209153	0.082065
	O15	O	0.108955	-0.209077	0.049735
	O16	O	0.002871	-0.291085	0.144983
	O17	O	0.046335	-0.041511	0.080393
	O18	O	0.008651	-0.040747	0.018648
	O19	O	0.108957	-0.040731	0.049706
	O20	O	0.065316	-0.040710	0.082324
	O21	O	0.114054	-0.291788	0.111550
	O22	O	-0.006636	-0.125149	0.148661
	O23	O	0.118791	-0.375218	0.046250
	C24	C	0.094885	-0.285681	0.111306
	C25	C	0.099718	-0.375519	0.110787
	C26	C	0.094861	-0.465358	0.111227
	C27	C	0.085428	-0.465059	0.112289
	C28	C	0.080612	-0.375130	0.112883
	C29	C	0.085448	-0.285304	0.112374
	C30	C	0.070369	-0.374810	0.112519
	C31	C	0.109983	-0.375711	0.111299
	C32	C	0.042763	-0.375470	0.114745
	C33	C	0.033464	-0.375579	0.121955
	C34	C	0.028963	-0.285854	0.125019
	C35	C	0.020228	-0.285871	0.131211
	C36	C	0.015741	-0.375483	0.134438
	C37	C	0.020207	-0.465178	0.131206
	C38	C	0.028938	-0.465114	0.125012
	C39	C	0.006515	-0.375134	0.142070
	C40	C	0.043092	-0.125267	0.075326
	C41	C	0.034999	-0.125063	0.062122
	C42	C	0.031129	-0.036163	0.055923
	C43	C	0.023660	-0.035919	0.043644
	C44	C	0.019818	-0.124684	0.037294
	C45	C	0.023685	-0.213648	0.043526
	C46	C	0.031153	-0.213765	0.055786
	C47	C	0.011811	-0.124550	0.023894
	C48	C	0.068917	-0.124874	0.079262
	C49	C	0.078195	-0.124637	0.071865
	C50	C	0.082691	-0.214416	0.068738
	C51	C	0.091452	-0.214487	0.062683
	C52	C	0.095945	-0.124710	0.059591
	C53	C	0.091441	-0.034920	0.062581
	C54	C	0.082673	-0.034778	0.068675
	C55	C	0.105281	-0.124933	0.052430
	H56	H	0.094837	-0.284200	0.060314
	H57	H	0.079319	-0.284477	0.071078
	H58	H	0.098535	-0.215670	0.111017
	H59	H	0.081842	-0.215193	0.112941
	H60	H	0.055848	-0.375067	0.073789
	H61	H	0.057063	-0.125733	0.120656
	H62	H	-0.006611	-0.125311	0.136428
	H63	H	0.119767	-0.375565	0.058383
	H64	H	0.034051	-0.282742	0.060633
	H65	H	0.020797	-0.282757	0.038673
	H66	H	0.016871	-0.216200	0.133711
	H67	H	0.032349	-0.216356	0.122604
	H68	H	0.020750	0.033221	0.038866
	H69	H	0.033975	0.032465	0.060819
	H70	H	0.032314	-0.534957	0.122613
	H71	H	0.016827	-0.535033	0.133681
	H72	H	0.081763	-0.534858	0.112723
	H73	H	0.098480	-0.535594	0.110855
	H74	H	0.079272	0.035126	0.071005
	H75	H	0.094819	0.034854	0.060083
	Al76	Al	0.055840	-0.000745	0.097397
	Al77	Al	0.055888	0.250089	0.097488
	Al78	Al	-0.000011	0.249781	-0.000050
	Al79	Al	-0.000065	-0.000107	-0.000094
	O80	O	0.066327	0.040718	0.112434
	O81	O	0.055784	0.124819	0.086149
	O82	O	0.056301	0.374870	0.108618
	O83	O	0.114046	0.040343	0.111520
	O84	O	0.046423	0.040910	0.112189
	O85	O	0.002806	0.040831	0.144629
	O86	O	0.046462	0.209086	0.112108
	O87	O	0.046380	0.290787	0.080434
	O88	O	0.008695	0.291173	0.018621
	O89	O	0.066347	0.209343	0.112494
	O90	O	0.065373	0.290242	0.082366
	O91	O	0.108894	0.290417	0.049498
	O92	O	0.002877	0.209047	0.144834
	O93	O	0.046338	0.458548	0.080436
	O94	O	0.008711	0.459254	0.018691
	O95	O	0.108939	0.458819	0.049623
	O96	O	0.065294	0.458540	0.082154
	O97	O	0.114102	0.208531	0.111356
	O98	O	-0.006726	0.374876	0.148674
	O99	O	0.118728	0.124726	0.046197
	C100	C	0.094909	0.215007	0.111363
	C101	C	0.099755	0.125099	0.110806
	C102	C	0.094904	0.035092	0.111198
	C103	C	0.085478	0.034901	0.112305
	C104	C	0.080625	0.124912	0.112968
	C105	C	0.085484	0.214861	0.112479
	C106	C	0.070394	0.124862	0.112724
	C107	C	0.110019	0.124723	0.111170
	C108	C	0.042780	0.124909	0.114875
	C109	C	0.033473	0.125174	0.122085
	C110	C	0.028948	0.214760	0.125077
	C111	C	0.020192	0.214894	0.131176
	C112	C	0.015729	0.125227	0.134418
	C113	C	0.020226	0.035655	0.131229
	C114	C	0.028979	0.035480	0.125118
	C115	C	0.006464	0.125009	0.141808
	C116	C	0.043141	0.374729	0.075364
	C117	C	0.035007	0.374649	0.062192
	C118	C	0.031137	0.463630	0.056014
	C119	C	0.023665	0.463671	0.043679
	C120	C	0.019855	0.374767	0.037291
	C121	C	0.023705	0.285815	0.043569
	C122	C	0.031182	0.285677	0.055873
	C123	C	0.011872	0.375053	0.023816
	C124	C	0.068939	0.374500	0.079348
	C125	C	0.078217	0.374749	0.071814
	C126	C	0.082699	0.285061	0.068703
	C127	C	0.091446	0.285128	0.062565
	C128	C	0.095914	0.374790	0.059410
	C129	C	0.091415	0.464340	0.062456
	C130	C	0.082666	0.464409	0.068597
	C131	C	0.105251	0.374700	0.052283
	H132	H	0.094850	0.215606	0.060252
	H133	H	0.079361	0.215517	0.071255
	H134	H	0.098561	0.284992	0.110983
	H135	H	0.081848	0.284770	0.113073
	H136	H	0.055851	0.125309	0.073965
	H137	H	0.057135	0.374638	0.120680
	H138	H	-0.006661	0.375500	0.136530
	H139	H	0.119430	0.124944	0.058310
	H140	H	0.034067	0.216679	0.060593
	H141	H	0.020864	0.216861	0.038654
	H142	H	0.016808	0.284551	0.133562
	H143	H	0.032322	0.284249	0.122606
	H144	H	0.020812	0.532736	0.038839
	H145	H	0.034001	0.532664	0.060873
	H146	H	0.032369	-0.034187	0.122722
	H147	H	0.016869	-0.034104	0.133676
	H148	H	0.081851	-0.035207	0.112723
	H149	H	0.098582	-0.034635	0.110724
	H150	H	0.079293	0.534184	0.071009
	H151	H	0.094763	0.534086	0.060031
	Al152	Al	0.062447	-0.499815	0.187439
	Al153	Al	0.062501	-0.250065	0.187522
	Al154	Al	-0.006570	-0.250792	0.160029
	Al155	Al	-0.006585	-0.499741	0.160057
	O156	O	0.073373	-0.459027	0.200896
	O157	O	0.061738	-0.374998	0.176165
	O158	O	0.063238	-0.125313	0.198910
	O159	O	0.121066	-0.459894	0.200334
	O160	O	0.053406	-0.459300	0.203514
	O161	O	0.009060	-0.459052	0.234163
	O162	O	0.053381	-0.291391	0.203420
	O163	O	0.051615	-0.208975	0.174017
	O164	O	0.003920	-0.209092	0.174931
	O165	O	0.073367	-0.290946	0.201002
	O166	O	0.071644	-0.209091	0.171621
	O167	O	0.115946	-0.209124	0.140956
	O168	O	0.008990	-0.291246	0.233898
	O169	O	0.051628	-0.040716	0.174159
	O170	O	0.003914	-0.040574	0.174799
	O171	O	0.115962	-0.041362	0.141056
	O172	O	0.071558	-0.041047	0.171517
	O173	O	0.121114	-0.291314	0.200239
	O174	O	-0.000797	-0.124908	0.238581
	O175	O	0.125672	-0.375429	0.136242
	C176	C	0.101930	-0.285250	0.200175
	C177	C	0.106771	-0.375089	0.199585
	C178	C	0.101925	-0.464891	0.200110
	C179	C	0.092512	-0.464865	0.201148
	C180	C	0.087671	-0.375063	0.201651
	C181	C	0.092501	-0.285013	0.201253
	C182	C	0.077419	-0.374879	0.201249
	C183	C	0.117038	-0.375402	0.200030
	C184	C	0.049717	-0.375258	0.206295
	C185	C	0.040291	-0.375312	0.213217
	C186	C	0.035676	-0.285446	0.215941
	C187	C	0.026736	-0.285301	0.221352
	C188	C	0.022132	-0.375014	0.224266
	C189	C	0.026758	-0.464865	0.221498
	C190	C	0.035684	-0.465052	0.216106
	C191	C	0.012730	-0.375040	0.231289
	C192	C	0.047572	-0.124829	0.173800
	C193	C	0.037317	-0.124898	0.173322
	C194	C	0.032467	-0.035036	0.173763
	C195	C	0.023030	-0.034963	0.174789
	C196	C	0.018195	-0.124850	0.175352
	C197	C	0.023035	-0.214591	0.174883
	C198	C	0.032477	-0.214700	0.173845
	C199	C	0.007955	-0.124818	0.175157
	C200	C	0.075267	-0.125043	0.168754
	C201	C	0.084705	-0.124854	0.161805
	C202	C	0.089330	-0.214605	0.159102
	C203	C	0.098233	-0.214620	0.153730
	C204	C	0.102816	-0.125046	0.150771
	C205	C	0.098226	-0.035261	0.153533
	C206	C	0.089315	-0.035445	0.158900
	C207	C	0.112259	-0.125155	0.143798
	H208	H	0.101701	-0.284845	0.151789
	H209	H	0.085914	-0.284855	0.161198
	H210	H	0.105582	-0.215202	0.199629
	H211	H	0.088859	-0.215360	0.201682
	H212	H	0.060648	-0.375032	0.164013
	H213	H	0.064199	-0.125558	0.211097
	H214	H	-0.001696	-0.124876	0.226501
	H215	H	0.126667	-0.375377	0.148413
	H216	H	0.036119	-0.284596	0.173427
	H217	H	0.019420	-0.284668	0.175341
	H218	H	0.023303	-0.215072	0.223280
	H219	H	0.039080	-0.215189	0.213760
	H220	H	0.019382	0.035221	0.175152
	H221	H	0.036094	0.034885	0.173293
	H222	H	0.039108	-0.535104	0.214046
	H223	H	0.023327	-0.535275	0.223560
	H224	H	0.088851	-0.534828	0.201485
	H225	H	0.105557	-0.534940	0.199508
	H226	H	0.085851	0.034544	0.160877
	H227	H	0.101647	0.034877	0.151432
	Al228	Al	0.062520	0.000059	0.187573
	Al229	Al	0.062496	0.249941	0.187445
	Al230	Al	-0.006609	0.249145	0.159888
	Al231	Al	-0.006608	0.000426	0.159888
	O232	O	0.073384	0.040742	0.201045
	O233	O	0.061760	0.124886	0.176170
	O234	O	0.063241	0.374978	0.198770
	O235	O	0.121093	0.040598	0.200276
	O236	O	0.053479	0.040848	0.203720
	O237	O	0.009027	0.040737	0.233956
	O238	O	0.053444	0.208969	0.203597
	O239	O	0.051595	0.290811	0.173988
	O240	O	0.003900	0.290623	0.174787
	O241	O	0.073383	0.208950	0.200991
	O242	O	0.071572	0.291166	0.171440
	O243	O	0.115823	0.290257	0.140851
	O244	O	0.009004	0.208668	0.233823
	O245	O	0.051597	0.459083	0.173930
	O246	O	0.003868	0.458937	0.174993
	O247	O	0.115985	0.458265	0.141166
	O248	O	0.071518	0.459159	0.171360
	O249	O	0.121114	0.208982	0.200300
	O250	O	-0.000768	0.375417	0.238737
	O251	O	0.125708	0.124655	0.136295
	C252	C	0.101982	0.214586	0.200154
	C253	C	0.106833	0.124805	0.199656
	C254	C	0.101991	0.034919	0.200150
	C255	C	0.092547	0.035026	0.201203
	C256	C	0.087699	0.124902	0.201750
	C257	C	0.092542	0.214679	0.201233
	C258	C	0.077436	0.124859	0.201307
	C259	C	0.117059	0.124860	0.200006
	C260	C	0.049761	0.124959	0.206421
	C261	C	0.040327	0.124835	0.213278
	C262	C	0.035722	0.214546	0.216038
	C263	C	0.026797	0.214334	0.221380
	C264	C	0.022185	0.124610	0.224194
	C265	C	0.026807	0.034926	0.221440
	C266	C	0.035744	0.035005	0.216103
	C267	C	0.012727	0.124650	0.231169
	C268	C	0.047551	0.374917	0.173667
	C269	C	0.037313	0.374946	0.173313
	C270	C	0.032478	0.464769	0.173918
	C271	C	0.023050	0.464683	0.174978
	C272	C	0.018200	0.374918	0.175447
	C273	C	0.023033	0.285114	0.174793
	C274	C	0.032460	0.285046	0.173721
	C275	C	0.007937	0.374848	0.175144
	C276	C	0.075250	0.375367	0.168613
	C277	C	0.084688	0.375277	0.161788
	C278	C	0.089269	0.285305	0.158988
	C279	C	0.098189	0.285128	0.153585
	C280	C	0.102792	0.374943	0.150729
	C281	C	0.098205	0.464706	0.153519
	C282	C	0.089279	0.465026	0.158872
	C283	C	0.112206	0.374486	0.143751
	H284	H	0.101626	0.214967	0.151663
	H285	H	0.085824	0.215249	0.161164
	H286	H	0.105610	0.284580	0.199660
	H287	H	0.088924	0.284636	0.201611
	H288	H	0.060785	0.124512	0.164159
	H289	H	0.064321	0.374875	0.210852
	H290	H	-0.001848	0.375717	0.226624
	H291	H	0.126691	0.123952	0.148352
	H292	H	0.036098	0.214970	0.173283
	H293	H	0.019386	0.215152	0.175202
	H294	H	0.023365	0.284404	0.223321
	H295	H	0.039147	0.284711	0.213881
	H296	H	0.019429	0.534468	0.175560
	H297	H	0.036126	0.535079	0.173628
	H298	H	0.039168	-0.035309	0.214031
	H299	H	0.023370	-0.035060	0.223393
	H300	H	0.088897	-0.034752	0.201520
	H301	H	0.105607	-0.035274	0.199642
	H302	H	0.085882	0.535202	0.160911
	H303	H	0.101672	0.534708	0.151487
	Al304	Al	0.069085	-0.500120	0.277615
	Al305	Al	0.069092	-0.250910	0.277556
	Al306	Al	-0.000047	-0.249696	0.249976
	Al307	Al	0.000015	-0.499934	0.250168
	O308	O	0.078637	-0.459672	0.294449
	O309	O	0.068641	-0.375716	0.266340
	O310	O	0.069183	-0.125629	0.288943
	O311	O	0.116245	-0.459404	0.356397
	O312	O	0.059601	-0.459584	0.292711
	O313	O	0.016060	-0.459385	0.325543
	O314	O	0.059573	-0.291385	0.292577
	O315	O	0.058608	-0.209114	0.262561
	O316	O	0.010902	-0.208950	0.263370
	O317	O	0.078620	-0.291707	0.294515
	O318	O	0.078574	-0.209209	0.262986
	O319	O	0.122096	-0.208919	0.230135
	O320	O	0.016025	-0.291297	0.325577
	O321	O	0.058625	-0.041103	0.262790
	O322	O	0.010902	-0.040731	0.263410
	O323	O	0.122098	-0.040755	0.230187
	O324	O	0.078560	-0.041063	0.263040
	O325	O	0.116223	-0.291136	0.356420
	O326	O	0.006194	-0.125182	0.328930
	O327	O	0.131642	-0.375488	0.226422
	C328	C	0.101295	-0.286355	0.331299
	C329	C	0.105120	-0.375348	0.337665
	C330	C	0.101285	-0.464512	0.331395
	C331	C	0.093828	-0.464510	0.319063
	C332	C	0.089997	-0.375566	0.312712
	C333	C	0.093858	-0.286376	0.318934
	C334	C	0.081881	-0.375593	0.299505
	C335	C	0.113110	-0.375392	0.351175
	C336	C	0.055964	-0.375378	0.295588
	C337	C	0.046704	-0.375188	0.303013
	C338	C	0.042236	-0.285422	0.306300
	C339	C	0.033511	-0.285702	0.312475
	C340	C	0.028994	-0.375313	0.315496
	C341	C	0.033472	-0.464930	0.312286
	C342	C	0.042194	-0.464774	0.306108
	C343	C	0.019706	-0.375239	0.322791
	C344	C	0.054555	-0.125043	0.262408
	C345	C	0.044313	-0.124564	0.262054
	C346	C	0.039478	-0.034598	0.262638
	C347	C	0.030042	-0.034570	0.263648
	C348	C	0.025190	-0.124539	0.264110
	C349	C	0.030043	-0.214448	0.263624
	C350	C	0.039467	-0.214335	0.262578
	C351	C	0.014933	-0.124861	0.263661
	C352	C	0.082213	-0.125187	0.260246
	C353	C	0.091528	-0.125026	0.253014
	C354	C	0.095996	-0.214603	0.249792
	C355	C	0.104737	-0.214536	0.243649
	C356	C	0.109213	-0.125002	0.240472
	C357	C	0.104754	-0.035419	0.243768
	C358	C	0.096020	-0.035440	0.249941
	C359	C	0.118476	-0.124978	0.233062
	H360	H	0.108094	-0.284288	0.241131
	H361	H	0.092590	-0.283965	0.252119
	H362	H	0.104223	-0.217454	0.336022
	H363	H	0.090991	-0.217361	0.314018
	H364	H	0.067776	-0.375987	0.254265
	H365	H	0.069226	-0.125622	0.301219
	H366	H	0.005347	-0.124804	0.316867
	H367	H	0.131673	-0.375758	0.238662
	H368	H	0.043112	-0.284387	0.262189
	H369	H	0.026411	-0.284436	0.264060
	H370	H	0.030113	-0.216189	0.315007
	H371	H	0.045630	-0.215715	0.303944
	H372	H	0.026397	0.035247	0.264059
	H373	H	0.043150	0.035379	0.262248
	H374	H	0.045555	-0.534383	0.303603
	H375	H	0.030087	-0.534576	0.314638
	H376	H	0.090930	-0.533507	0.314297
	H377	H	0.104172	-0.533546	0.336216
	H378	H	0.092651	0.034170	0.252405
	H379	H	0.108133	0.034292	0.241370
	Al380	Al	0.069112	-0.000129	0.277727
	Al381	Al	0.069079	0.249026	0.277609
	Al382	Al	-0.000040	0.250016	0.249951
	Al383	Al	-0.000020	-0.000056	0.249961
	O384	O	0.078648	0.040507	0.294620
	O385	O	0.068714	0.124418	0.266462
	O386	O	0.069041	0.374559	0.288898
	O387	O	0.116303	0.040949	0.356354
	O388	O	0.059651	0.040498	0.292859
	O389	O	0.015961	0.040952	0.325372
	O390	O	0.059534	0.208874	0.292577
	O391	O	0.058607	0.289979	0.262530
	O392	O	0.010886	0.290479	0.263434
	O393	O	0.078566	0.208600	0.294687
	O394	O	0.078535	0.290294	0.263012
	O395	O	0.122102	0.290438	0.230241
	O396	O	0.016029	0.209193	0.325502
	O397	O	0.058574	0.458555	0.262575
	O398	O	0.010906	0.458584	0.263606
	O399	O	0.122103	0.458934	0.230264
	O400	O	0.078505	0.458441	0.262934
	O401	O	0.116265	0.208945	0.356359
	O402	O	0.006193	0.374731	0.328925
	O403	O	0.131703	0.124419	0.226422
	C404	C	0.101316	0.214111	0.331343
	C405	C	0.105141	0.125119	0.337682
	C406	C	0.101317	0.035959	0.331405
	C407	C	0.093839	0.035684	0.319095
	C408	C	0.089975	0.124669	0.312817
	C409	C	0.093824	0.213859	0.319070
	C410	C	0.081814	0.124723	0.299692
	C411	C	0.113135	0.124898	0.351207
	C412	C	0.055960	0.124881	0.295614
	C413	C	0.046692	0.124798	0.303044
	C414	C	0.042212	0.214496	0.306264
	C415	C	0.033467	0.214548	0.312423
	C416	C	0.028961	0.124979	0.315464
	C417	C	0.033463	0.035327	0.312388
	C418	C	0.042219	0.035243	0.306232
	C419	C	0.019647	0.125027	0.322662
	C420	C	0.054546	0.374139	0.262356
	C421	C	0.044300	0.374023	0.262104
	C422	C	0.039456	0.463907	0.262467
	C423	C	0.030028	0.464014	0.263525
	C424	C	0.025191	0.374286	0.264192
	C425	C	0.030014	0.284207	0.263797
	C426	C	0.039444	0.284228	0.262747
	C427	C	0.014956	0.374464	0.263858
	C428	C	0.082167	0.374553	0.260210
	C429	C	0.091484	0.374842	0.253003
	C430	C	0.095980	0.285143	0.249921
	C431	C	0.104732	0.284978	0.243816
	C432	C	0.109202	0.374520	0.240608
	C433	C	0.104712	0.464203	0.243767
	C434	C	0.095959	0.464408	0.249885
	C435	C	0.118488	0.374627	0.233181
	H436	H	0.108116	0.215408	0.241422
	H437	H	0.092589	0.215433	0.252324
	H438	H	0.104187	0.283350	0.336127
	H439	H	0.090933	0.282758	0.314290
	H440	H	0.067908	0.124352	0.254328
	H441	H	0.068804	0.374687	0.301037
	H442	H	0.005399	0.374974	0.316830
	H443	H	0.131694	0.124042	0.238569
	H444	H	0.043097	0.214129	0.262294
	H445	H	0.026355	0.214487	0.264210
	H446	H	0.030092	0.284095	0.314784
	H447	H	0.045586	0.284109	0.303845
	H448	H	0.026369	0.533947	0.263747
	H449	H	0.043069	0.533983	0.261762
	H450	H	0.045577	-0.034471	0.303791
	H451	H	0.030052	-0.034017	0.314711
	H452	H	0.090944	-0.033462	0.314394
	H453	H	0.104215	-0.032975	0.336241
	H454	H	0.092554	0.533833	0.252295
	H455	H	0.108079	0.533779	0.241346
	Al456	Al	0.062519	-0.500012	0.437508
	Al457	Al	0.062519	-0.250366	0.437510
	Al458	Al	0.006556	-0.249815	0.340166
	Al459	Al	0.006583	-0.500689	0.340103
	O460	O	0.071296	-0.459364	0.456230
	O461	O	0.062985	-0.375198	0.426515
	O462	O	0.061915	-0.125168	0.448458
	O463	O	0.108898	-0.459129	0.518009
	O464	O	0.052481	-0.459537	0.450652
	O465	O	0.010066	-0.459606	0.487135
	O466	O	0.052469	-0.291216	0.450640
	O467	O	0.053761	-0.209543	0.418811
	O468	O	0.016067	-0.209349	0.357112
	O469	O	0.071248	-0.291253	0.456183
	O470	O	0.072522	-0.208922	0.424386
	O471	O	0.114959	-0.209128	0.388068
	O472	O	0.010045	-0.291140	0.487053
	O473	O	0.053705	-0.041539	0.418850
	O474	O	0.016089	-0.041468	0.357143
	O475	O	0.114910	-0.040700	0.388025
	O476	O	0.072558	-0.040516	0.424483
	O477	O	0.108877	-0.291068	0.518117
	O478	O	0.000491	-0.125413	0.489194
	O479	O	0.124494	-0.375633	0.386123
	C480	C	0.093676	-0.285973	0.493639
	C481	C	0.097533	-0.374814	0.499895
	C482	C	0.093692	-0.463578	0.493606
	C483	C	0.086224	-0.463424	0.481256
	C484	C	0.082396	-0.374701	0.474948
	C485	C	0.086207	-0.285752	0.481304
	C486	C	0.074420	-0.375246	0.461405
	C487	C	0.105665	-0.374871	0.513003
	C488	C	0.048892	-0.375280	0.453599
	C489	C	0.039807	-0.375379	0.461546
	C490	C	0.035442	-0.286196	0.465068
	C491	C	0.026974	-0.286216	0.472325
	C492	C	0.022681	-0.375392	0.476070
	C493	C	0.027043	-0.464660	0.472564
	C494	C	0.035517	-0.464643	0.465299
	C495	C	0.013621	-0.375463	0.484072
	C496	C	0.050602	-0.125785	0.413587
	C497	C	0.042640	-0.125878	0.400079
	C498	C	0.038734	-0.036912	0.393971
	C499	C	0.031232	-0.036528	0.381693
	C500	C	0.027453	-0.125402	0.375212
	C501	C	0.031369	-0.214462	0.381272
	C502	C	0.038877	-0.214817	0.393570
	C503	C	0.019314	-0.125385	0.362113
	C504	C	0.076119	-0.124878	0.421520
	C505	C	0.085214	-0.124748	0.413597
	C506	C	0.089536	-0.213825	0.409993
	C507	C	0.098013	-0.213729	0.402755
	C508	C	0.102327	-0.124799	0.399105
	C509	C	0.098004	-0.035767	0.402672
	C510	C	0.089531	-0.035691	0.409902
	C511	C	0.111370	-0.124925	0.391043
	H512	H	0.101288	-0.282343	0.399904
	H513	H	0.086244	-0.282262	0.412876
	H514	H	0.096555	-0.217141	0.498509
	H515	H	0.083347	-0.216525	0.476448
	H516	H	0.063417	-0.375084	0.414440
	H517	H	0.061317	-0.124996	0.460467
	H518	H	0.000936	-0.125410	0.477120
	H519	H	0.124092	-0.375821	0.398100
	H520	H	0.041818	-0.283805	0.398227
	H521	H	0.028562	-0.283386	0.376241
	H522	H	0.023648	-0.217247	0.475061
	H523	H	0.038706	-0.217647	0.462085
	H524	H	0.028310	0.032489	0.377052
	H525	H	0.041528	0.031896	0.398993
	H526	H	0.038815	-0.533505	0.462477
	H527	H	0.023801	-0.533523	0.475506
	H528	H	0.083370	-0.532129	0.476374
	H529	H	0.096584	-0.532375	0.498378
	H530	H	0.086238	0.032835	0.412669
	H531	H	0.101261	0.032962	0.399688
	Al532	Al	0.062456	-0.000106	0.437492
	Al533	Al	0.062484	0.249547	0.437506
	Al534	Al	0.006573	0.250610	0.340247
	Al535	Al	0.006588	-0.000471	0.340105
	O536	O	0.071212	0.040742	0.456159
	O537	O	0.062953	0.124660	0.426482
	O538	O	0.062069	0.374634	0.448619
	O539	O	0.108896	0.040532	0.517915
	O540	O	0.052466	0.040699	0.450730
	O541	O	0.010085	0.040184	0.487160
	O542	O	0.052432	0.209163	0.450576
	O543	O	0.053781	0.291087	0.418774
	O544	O	0.016135	0.290712	0.357089
	O545	O	0.071143	0.208823	0.456351
	O546	O	0.072596	0.289927	0.424654
	O547	O	0.114928	0.290074	0.387980
	O548	O	0.010043	0.208703	0.487081
	O549	O	0.053739	0.459090	0.418884
	O550	O	0.016068	0.458561	0.357163
	O551	O	0.114921	0.458447	0.387982
	O552	O	0.072521	0.458359	0.424326
	O553	O	0.108876	0.208462	0.517832
	O554	O	0.000533	0.374499	0.489229
	O555	O	0.124562	0.124832	0.386124
	C556	C	0.093570	0.213430	0.493652
	C557	C	0.097507	0.124327	0.499699
	C558	C	0.093637	0.035360	0.493509
	C559	C	0.086159	0.035313	0.481225
	C560	C	0.082317	0.124476	0.474940
	C561	C	0.086089	0.213346	0.481379
	C562	C	0.074327	0.124638	0.461444
	C563	C	0.105649	0.124513	0.512834
	C564	C	0.048889	0.124855	0.453633
	C565	C	0.039799	0.124945	0.461587
	C566	C	0.035446	0.214179	0.465142
	C567	C	0.026961	0.214277	0.472369
	C568	C	0.022692	0.124820	0.476124
	C569	C	0.027064	0.035473	0.472679
	C570	C	0.035539	0.035700	0.465434
	C571	C	0.013609	0.124445	0.484091
	C572	C	0.050601	0.375012	0.413692
	C573	C	0.042636	0.374924	0.400122
	C574	C	0.038744	0.463813	0.393934
	C575	C	0.031273	0.463572	0.381633
	C576	C	0.027485	0.374591	0.375259
	C577	C	0.031413	0.285701	0.381372
	C578	C	0.038880	0.285738	0.393685
	C579	C	0.019325	0.374690	0.362156
	C580	C	0.076123	0.374161	0.421500
	C581	C	0.085164	0.374261	0.413448
	C582	C	0.089513	0.284949	0.409868
	C583	C	0.097985	0.284755	0.402633
	C584	C	0.102280	0.373953	0.398889
	C585	C	0.097964	0.463432	0.402558
	C586	C	0.089481	0.463541	0.409800
	C587	C	0.111363	0.374426	0.390982
	H588	H	0.101305	0.215754	0.399904
	H589	H	0.086280	0.216214	0.412906
	H590	H	0.096398	0.282744	0.498551
	H591	H	0.083115	0.282196	0.476754
	H592	H	0.063421	0.124847	0.414400
	H593	H	0.061772	0.374707	0.460589
	H594	H	0.001089	0.374430	0.477201
	H595	H	0.124023	0.124444	0.398102
	H596	H	0.041789	0.216968	0.398406
	H597	H	0.028546	0.216755	0.376457
	H598	H	0.023674	0.283284	0.475241
	H599	H	0.038681	0.283212	0.462084
	H600	H	0.028317	0.532631	0.376997
	H601	H	0.041556	0.532726	0.398967
	H602	H	0.038854	-0.032984	0.462628
	H603	H	0.023835	-0.033453	0.475803
	H604	H	0.083266	-0.033696	0.476477
	H605	H	0.096556	-0.033759	0.498323
	H606	H	0.086220	0.532576	0.412699
	H607	H	0.101299	0.532283	0.399730
	Al608	Al	0.055973	-0.500754	0.597560
	Al609	Al	0.055969	-0.249668	0.597481
	Al610	Al	0.000018	-0.250478	0.500233
	Al611	Al	-0.000016	-0.500426	0.500177
	O612	O	0.066442	-0.459568	0.612468
	O613	O	0.055878	-0.375185	0.586251
	O614	O	0.056400	-0.125009	0.608754
	O615	O	0.114150	-0.458394	0.611564
	O616	O	0.046516	-0.459665	0.612204
	O617	O	0.002984	-0.459430	0.645123
	O618	O	0.046497	-0.291468	0.612093
	O619	O	0.046417	-0.209317	0.580507
	O620	O	0.008760	-0.209485	0.518852
	O621	O	0.066431	-0.291019	0.612449
	O622	O	0.065427	-0.209430	0.582371
	O623	O	0.108988	-0.209328	0.549682
	O624	O	0.002946	-0.291288	0.644872
	O625	O	0.046430	-0.041207	0.580556
	O626	O	0.008728	-0.041241	0.518844
	O627	O	0.108979	-0.040954	0.549543
	O628	O	0.065366	-0.041144	0.582315
	O629	O	0.114099	-0.290111	0.611750
	O630	O	-0.006605	-0.125696	0.648787
	O631	O	0.118774	-0.375237	0.546279
	C632	C	0.094988	-0.284905	0.611479
	C633	C	0.099837	-0.374732	0.610948
	C634	C	0.094991	-0.464654	0.611274
	C635	C	0.085570	-0.464754	0.612256
	C636	C	0.080721	-0.374965	0.612916
	C637	C	0.085556	-0.285059	0.612443
	C638	C	0.070495	-0.375290	0.612637
	C639	C	0.110074	-0.374402	0.611383
	C640	C	0.042844	-0.375702	0.614922
	C641	C	0.033530	-0.375546	0.622050
	C642	C	0.028996	-0.285974	0.624942
	C643	C	0.020266	-0.285897	0.631140
	C644	C	0.015824	-0.375533	0.634521
	C645	C	0.020320	-0.465172	0.631443
	C646	C	0.029052	-0.465170	0.625234
	C647	C	0.006598	-0.375402	0.642110
	C648	C	0.043185	-0.125343	0.575517
	C649	C	0.035047	-0.125113	0.562350
	C650	C	0.031180	-0.035993	0.556125
	C651	C	0.023697	-0.036135	0.543836
	C652	C	0.019876	-0.125180	0.537547
	C653	C	0.023688	-0.214372	0.543897
	C654	C	0.031177	-0.214298	0.556191
	C655	C	0.011883	-0.125297	0.524061
	C656	C	0.069029	-0.125039	0.579412
	C657	C	0.078285	-0.125079	0.571949
	C658	C	0.082809	-0.214742	0.568901
	C659	C	0.091554	-0.214525	0.562753
	C660	C	0.096017	-0.124818	0.559576
	C661	C	0.091490	-0.035183	0.562486
	C662	C	0.082739	-0.035408	0.568646
	C663	C	0.105313	-0.124939	0.552370
	H664	H	0.094982	-0.283991	0.560468
	H665	H	0.079497	-0.284732	0.571382
	H666	H	0.098622	-0.215043	0.611223
	H667	H	0.081883	-0.215018	0.612884
	H668	H	0.055848	-0.375638	0.574063
	H669	H	0.057534	-0.125418	0.620775
	H670	H	-0.006326	-0.125843	0.636591
	H671	H	0.119591	-0.375588	0.558406
	H672	H	0.034042	-0.283154	0.561023
	H673	H	0.020767	-0.283486	0.539211
	H674	H	0.016892	-0.215996	0.633476
	H675	H	0.032358	-0.216453	0.622341
	H676	H	0.020781	0.032854	0.539074
	H677	H	0.034034	0.032997	0.560929
	H678	H	0.032441	-0.534936	0.622849
	H679	H	0.016952	-0.534867	0.633966
	H680	H	0.081942	-0.535030	0.612600
	H681	H	0.098662	-0.534486	0.610838
	H682	H	0.079334	0.034098	0.570936
	H683	H	0.094836	0.034660	0.560005
	Al684	Al	0.055928	-0.000592	0.597540
	Al685	Al	0.055964	0.250084	0.597586
	Al686	Al	0.000023	0.249588	0.500223
	Al687	Al	-0.000005	-0.000437	0.500149
	O688	O	0.066489	0.040029	0.612415
	O689	O	0.055895	0.124653	0.586302
	O690	O	0.056327	0.374547	0.608800
	O691	O	0.114116	0.041129	0.611666
	O692	O	0.046501	0.040582	0.612191
	O693	O	0.002920	0.040270	0.644942
	O694	O	0.046524	0.208568	0.612250
	O695	O	0.046434	0.290585	0.580649
	O696	O	0.008811	0.290757	0.518825
	O697	O	0.066408	0.208283	0.612612
	O698	O	0.065492	0.290373	0.582624
	O699	O	0.108957	0.290742	0.549445
	O700	O	0.002863	0.208675	0.644783
	O701	O	0.046443	0.458730	0.580593
	O702	O	0.008796	0.458741	0.518780
	O703	O	0.108918	0.458804	0.549486
	O704	O	0.065408	0.458316	0.582403
	O705	O	0.114122	0.209468	0.611616
	O706	O	-0.006633	0.374610	0.648722
	O707	O	0.118807	0.124926	0.546165
	C708	C	0.094990	0.215292	0.611450
	C709	C	0.099841	0.125379	0.610953
	C710	C	0.095008	0.035290	0.611429
	C711	C	0.085582	0.035156	0.612501
	C712	C	0.080727	0.125017	0.613025
	C713	C	0.085557	0.215200	0.612526
	C714	C	0.070494	0.124385	0.612817
	C715	C	0.110080	0.125309	0.611332
	C716	C	0.042858	0.124760	0.615011
	C717	C	0.033542	0.124828	0.622212
	C718	C	0.029020	0.214506	0.625190
	C719	C	0.020272	0.214296	0.631318
	C720	C	0.015812	0.124672	0.634601
	C721	C	0.020320	0.035027	0.631469
	C722	C	0.029065	0.035233	0.625350
	C723	C	0.006503	0.124379	0.641948
	C724	C	0.043230	0.374769	0.575551
	C725	C	0.035085	0.374673	0.562443
	C726	C	0.031203	0.463566	0.556225
	C727	C	0.023729	0.463567	0.543906
	C728	C	0.019936	0.374696	0.537508
	C729	C	0.023781	0.285752	0.543822
	C730	C	0.031254	0.285814	0.556147
	C731	C	0.011965	0.374701	0.523971
	C732	C	0.069064	0.374301	0.579568
	C733	C	0.078312	0.374490	0.572083
	C734	C	0.082822	0.284929	0.568987
	C735	C	0.091538	0.284935	0.562736
	C736	C	0.095999	0.374556	0.559504
	C737	C	0.091504	0.464052	0.562599
	C738	C	0.082779	0.464145	0.568795
	C739	C	0.105285	0.374528	0.552191
	H740	H	0.094919	0.215388	0.560335
	H741	H	0.079470	0.215130	0.571512
	H742	H	0.098648	0.285380	0.611013
	H743	H	0.081914	0.284945	0.613059
	H744	H	0.056029	0.124656	0.574047
	H745	H	0.057169	0.374752	0.620979
	H746	H	-0.006628	0.374696	0.636598
	H747	H	0.119671	0.125199	0.558256
	H748	H	0.034168	0.216760	0.560861
	H749	H	0.020910	0.216757	0.538929
	H750	H	0.016840	0.283873	0.633603
	H751	H	0.032377	0.284360	0.622650
	H752	H	0.020857	0.532593	0.539099
	H753	H	0.034104	0.532592	0.561050
	H754	H	0.032460	-0.034211	0.622952
	H755	H	0.016955	-0.034571	0.633886
	H756	H	0.081946	-0.034857	0.613010
	H757	H	0.098640	-0.034739	0.610996
	H758	H	0.079405	0.533891	0.571107
	H759	H	0.094859	0.533449	0.560004
	Al760	Al	0.062516	-0.499547	0.687470
	Al761	Al	0.062517	-0.249521	0.687345
	Al762	Al	-0.006540	-0.251044	0.660094
	Al763	Al	-0.006544	-0.499993	0.660065
	O764	O	0.073436	-0.458303	0.700867
	O765	O	0.061718	-0.374518	0.676063
	O766	O	0.063214	-0.124648	0.698836
	O767	O	0.121128	-0.458580	0.700319
	O768	O	0.053544	-0.458534	0.703684
	O769	O	0.009082	-0.458382	0.733896
	O770	O	0.053498	-0.290705	0.703527
	O771	O	0.051616	-0.208595	0.673957
	O772	O	0.003914	-0.209466	0.674971
	O773	O	0.073431	-0.290030	0.700828
	O774	O	0.071512	-0.208350	0.671210
	O775	O	0.116050	-0.208693	0.641290
	O776	O	0.009087	-0.290399	0.733815
	O777	O	0.051583	-0.040471	0.674074
	O778	O	0.003890	-0.041030	0.675069
	O779	O	0.115952	-0.040466	0.641040
	O780	O	0.071564	-0.040363	0.671478
	O781	O	0.121126	-0.290134	0.700451
	O782	O	-0.000725	-0.124848	0.738547
	O783	O	0.125794	-0.374731	0.636353
	C784	C	0.102014	-0.284125	0.700266
	C785	C	0.106859	-0.374097	0.699715
	C786	C	0.102030	-0.463961	0.700283
	C787	C	0.092598	-0.463970	0.701260
	C788	C	0.087738	-0.374056	0.701682
	C789	C	0.092583	-0.284193	0.701242
	C790	C	0.077475	-0.374188	0.701146
	C791	C	0.117086	-0.374314	0.700120
	C792	C	0.049837	-0.374670	0.706376
	C793	C	0.040372	-0.374610	0.713261
	C794	C	0.035729	-0.284789	0.715981
	C795	C	0.026798	-0.284619	0.721284
	C796	C	0.022207	-0.374397	0.724155
	C797	C	0.026837	-0.464206	0.721429
	C798	C	0.035769	-0.464249	0.716137
	C799	C	0.012759	-0.374523	0.731064
	C800	C	0.047561	-0.124611	0.673776
	C801	C	0.037310	-0.124992	0.673412
	C802	C	0.032472	-0.035155	0.674025
	C803	C	0.023036	-0.035164	0.675074
	C804	C	0.018187	-0.125058	0.675522
	C805	C	0.023043	-0.214884	0.674972
	C806	C	0.032476	-0.214951	0.673925
	C807	C	0.007946	-0.125147	0.675308
	C808	C	0.075250	-0.124370	0.668630
	C809	C	0.084688	-0.124644	0.661686
	C810	C	0.089313	-0.214428	0.659020
	C811	C	0.098258	-0.214303	0.653688
	C812	C	0.102860	-0.124503	0.650861
	C813	C	0.098230	-0.034801	0.653513
	C814	C	0.089288	-0.034962	0.658852
	C815	C	0.112293	-0.124592	0.643898
	H816	H	0.101717	-0.284588	0.651729
	H817	H	0.085910	-0.284678	0.661116
	H818	H	0.105660	-0.213981	0.699877
	H819	H	0.088918	-0.214327	0.701646
	H820	H	0.060820	-0.374894	0.663901
	H821	H	0.064052	-0.124697	0.711024
	H822	H	-0.001516	-0.124552	0.726310
	H823	H	0.126809	-0.374431	0.648622
	H824	H	0.036107	-0.284757	0.673401
	H825	H	0.019385	-0.284733	0.675336
	H826	H	0.023339	-0.214541	0.723358
	H827	H	0.039160	-0.214847	0.713962
	H828	H	0.019406	0.034817	0.675516
	H829	H	0.036115	0.034690	0.673590
	H830	H	0.039236	-0.534485	0.714260
	H831	H	0.023425	-0.534149	0.723568
	H832	H	0.088966	-0.533989	0.701650
	H833	H	0.105672	-0.533831	0.699920
	H834	H	0.085863	0.035428	0.660845
	H835	H	0.101637	0.035546	0.651338
	Al836	Al	0.062510	0.000406	0.687439
	Al837	Al	0.062572	0.250410	0.687509
	Al838	Al	-0.006571	0.249126	0.659940
	Al839	Al	-0.006604	0.000063	0.660021
	O840	O	0.073398	0.041519	0.700843
	O841	O	0.061759	0.125491	0.676156
	O842	O	0.063239	0.375809	0.698848
	O843	O	0.121131	0.041151	0.700326
	O844	O	0.053497	0.040955	0.703641
	O845	O	0.009068	0.041136	0.733893
	O846	O	0.053539	0.209033	0.703699
	O847	O	0.051656	0.291260	0.673986
	O848	O	0.003942	0.290146	0.674918
	O849	O	0.073465	0.209910	0.700899
	O850	O	0.071572	0.291757	0.671412
	O851	O	0.116006	0.291772	0.641088
	O852	O	0.009038	0.209125	0.733875
	O853	O	0.051626	0.459428	0.673966
	O854	O	0.003916	0.458422	0.674931
	O855	O	0.115980	0.460033	0.641045
	O856	O	0.071609	0.459843	0.671501
	O857	O	0.121112	0.209602	0.700333
	O858	O	-0.000761	0.375394	0.738581
	O859	O	0.125791	0.125433	0.636340
	C860	C	0.101996	0.215322	0.700185
	C861	C	0.106840	0.125313	0.699726
	C862	C	0.101997	0.035184	0.700316
	C863	C	0.092562	0.035473	0.701311
	C864	C	0.087722	0.125501	0.701627
	C865	C	0.092573	0.215520	0.701189
	C866	C	0.077470	0.125560	0.701205
	C867	C	0.117086	0.125339	0.699961
	C868	C	0.049818	0.125145	0.706373
	C869	C	0.040386	0.125313	0.713426
	C870	C	0.035746	0.214915	0.716105
	C871	C	0.026810	0.214863	0.721439
	C872	C	0.022186	0.125222	0.724193
	C873	C	0.026838	0.035476	0.721597
	C874	C	0.035779	0.035672	0.716267
	C875	C	0.012741	0.125268	0.731118
	C876	C	0.047603	0.375285	0.673758
	C877	C	0.037353	0.375152	0.673425
	C878	C	0.032503	0.464970	0.674041
	C879	C	0.023068	0.464891	0.675077
	C880	C	0.018233	0.374872	0.675567
	C881	C	0.023083	0.285154	0.674986
	C882	C	0.032509	0.285357	0.673913
	C883	C	0.007977	0.374402	0.675242
	C884	C	0.075291	0.375812	0.668690
	C885	C	0.084728	0.375773	0.661726
	C886	C	0.089321	0.285952	0.658891
	C887	C	0.098248	0.286084	0.653544
	C888	C	0.102873	0.375850	0.650794
	C889	C	0.098248	0.465622	0.653534
	C890	C	0.089322	0.465507	0.658872
	C891	C	0.112305	0.375840	0.643820
	H892	H	0.101687	0.215988	0.651425
	H893	H	0.085882	0.215905	0.660903
	H894	H	0.105655	0.285251	0.699720
	H895	H	0.088957	0.285667	0.701607
	H896	H	0.060722	0.125273	0.664037
	H897	H	0.064148	0.375816	0.711024
	H898	H	-0.001775	0.375435	0.726478
	H899	H	0.126828	0.125342	0.648435
	H900	H	0.036146	0.215463	0.673357
	H901	H	0.019484	0.214892	0.675308
	H902	H	0.023393	0.284914	0.723576
	H903	H	0.039188	0.285102	0.714095
	H904	H	0.019390	0.534493	0.675526
	H905	H	0.036122	0.535167	0.673654
	H906	H	0.039245	-0.034532	0.714419
	H907	H	0.023450	-0.034853	0.723833
	H908	H	0.088887	-0.034277	0.701852
	H909	H	0.105652	-0.034698	0.699969
	H910	H	0.085864	0.535563	0.660907
	H911	H	0.101673	0.535749	0.651422
	Al912	Al	0.069067	-0.498706	0.777653
	Al913	Al	0.069057	-0.249521	0.777741
	Al914	Al	0.000001	-0.249746	0.749871
	Al915	Al	0.000018	-0.499629	0.749940
	O916	O	0.078563	-0.458189	0.794677
	O917	O	0.068724	-0.374111	0.766437
	O918	O	0.069164	-0.123781	0.788929
	O919	O	0.116335	-0.458344	0.856334
	O920	O	0.059563	-0.458434	0.792675
	O921	O	0.016013	-0.458702	0.825481
	O922	O	0.059575	-0.290024	0.792755
	O923	O	0.058594	-0.209152	0.762730
	O924	O	0.010886	-0.208746	0.763440
	O925	O	0.078569	-0.290334	0.794781
	O926	O	0.078532	-0.208323	0.763083
	O927	O	0.122216	-0.208229	0.730545
	O928	O	0.015966	-0.290484	0.825404
	O929	O	0.058606	-0.040912	0.762607
	O930	O	0.010914	-0.040627	0.763369
	O931	O	0.122079	-0.040018	0.730267
	O932	O	0.078526	-0.039908	0.762887
	O933	O	0.116298	-0.290396	0.856312
	O934	O	0.006148	-0.124648	0.828855
	O935	O	0.131706	-0.374717	0.726651
	C936	C	0.101338	-0.285772	0.831350
	C937	C	0.105182	-0.374666	0.837663
	C938	C	0.101355	-0.463706	0.831274
	C939	C	0.093842	-0.463665	0.819024
	C940	C	0.089966	-0.374684	0.812813
	C941	C	0.093842	-0.285740	0.819085
	C942	C	0.081811	-0.374313	0.799740
	C943	C	0.113161	-0.374658	0.851150
	C944	C	0.055960	-0.374320	0.795697
	C945	C	0.046708	-0.374278	0.803205
	C946	C	0.042212	-0.284831	0.806342
	C947	C	0.033468	-0.285136	0.812485
	C948	C	0.028996	-0.374629	0.815613
	C949	C	0.033496	-0.464166	0.812548
	C950	C	0.042248	-0.463928	0.806424
	C951	C	0.019658	-0.374622	0.822756
	C952	C	0.054536	-0.125038	0.762395
	C953	C	0.044307	-0.125033	0.762037
	C954	C	0.039461	-0.035003	0.762618
	C955	C	0.030031	-0.035003	0.763652
	C956	C	0.025179	-0.124835	0.764163
	C957	C	0.030027	-0.214726	0.763683
	C958	C	0.039453	-0.214777	0.762609
	C959	C	0.014933	-0.124766	0.763711
	C960	C	0.082186	-0.124286	0.760259
	C961	C	0.091510	-0.124836	0.753073
	C962	C	0.095979	-0.214605	0.749909
	C963	C	0.104732	-0.214444	0.743801
	C964	C	0.109246	-0.124639	0.740733
	C965	C	0.104791	-0.034872	0.744002
	C966	C	0.096040	-0.035145	0.750096
	C967	C	0.118527	-0.124443	0.733305
	H968	H	0.108118	-0.284260	0.741340
	H969	H	0.092553	-0.284224	0.752209
	H970	H	0.104245	-0.216583	0.836141
	H971	H	0.090958	-0.216610	0.814290
	H972	H	0.067857	-0.373879	0.754322
	H973	H	0.069185	-0.124020	0.801124
	H974	H	0.005131	-0.125130	0.816688
	H975	H	0.131935	-0.374864	0.738920
	H976	H	0.043088	-0.284566	0.762198
	H977	H	0.026377	-0.284683	0.764087
	H978	H	0.030072	-0.215751	0.814853
	H979	H	0.045559	-0.215062	0.803858
	H980	H	0.026372	0.035267	0.763997
	H981	H	0.043111	0.034771	0.762238
	H982	H	0.045643	-0.533589	0.804057
	H983	H	0.030129	-0.533523	0.814993
	H984	H	0.090952	-0.532912	0.814160
	H985	H	0.104276	-0.532852	0.835976
	H986	H	0.092654	0.034362	0.752579
	H987	H	0.108181	0.034861	0.741711
	Al988	Al	0.069096	0.001254	0.777547
	Al989	Al	0.069076	0.250265	0.777742
	Al990	Al	0.000012	0.250406	0.749873
	Al991	Al	-0.000019	0.000351	0.749903
	O992	O	0.078608	0.042186	0.794682
	O993	O	0.068647	0.125735	0.766388
	O994	O	0.069105	0.375838	0.789010
	O995	O	0.116296	0.041776	0.856309
	O996	O	0.059571	0.041037	0.792633
	O997	O	0.016053	0.041283	0.825496
	O998	O	0.059678	0.209084	0.792862
	O999	O	0.058569	0.291254	0.762852
	O1000	O	0.010904	0.290951	0.763251
	O1001	O	0.078594	0.210114	0.794667
	O1002	O	0.078511	0.291645	0.763052
	O1003	O	0.122130	0.291226	0.730396
	O1004	O	0.016077	0.209578	0.825604
	O1005	O	0.058611	0.459613	0.762606
	O1006	O	0.010903	0.459302	0.763368
	O1007	O	0.122135	0.459366	0.730332
	O1008	O	0.078515	0.459717	0.763049
	O1009	O	0.116305	0.209421	0.856279
	O1010	O	0.006195	0.375453	0.828865
	O1011	O	0.131702	0.125399	0.726588
	C1012	C	0.101264	0.214871	0.831487
	C1013	C	0.105151	0.125837	0.837620
	C1014	C	0.101346	0.036989	0.831268
	C1015	C	0.093840	0.037253	0.819015
	C1016	C	0.089949	0.126057	0.812854
	C1017	C	0.093752	0.214965	0.819225
	C1018	C	0.081822	0.126026	0.799732
	C1019	C	0.113161	0.125681	0.851110
	C1020	C	0.055984	0.125319	0.795653
	C1021	C	0.046720	0.125518	0.803093
	C1022	C	0.042244	0.215226	0.806253
	C1023	C	0.033504	0.215244	0.812448
	C1024	C	0.029023	0.125562	0.815614
	C1025	C	0.033523	0.035841	0.812582
	C1026	C	0.042265	0.035832	0.806386
	C1027	C	0.019710	0.125457	0.822791
	C1028	C	0.054536	0.375640	0.762409
	C1029	C	0.044309	0.375552	0.762097
	C1030	C	0.039472	0.465337	0.762640
	C1031	C	0.030045	0.465412	0.763693
	C1032	C	0.025206	0.375413	0.764132
	C1033	C	0.030044	0.285563	0.763656
	C1034	C	0.039479	0.285563	0.762624
	C1035	C	0.014945	0.375246	0.763626
	C1036	C	0.082187	0.375886	0.760319
	C1037	C	0.091526	0.375482	0.753215
	C1038	C	0.096001	0.285969	0.750015
	C1039	C	0.104741	0.286035	0.743854
	C1040	C	0.109257	0.375517	0.740776
	C1041	C	0.104814	0.465084	0.744136
	C1042	C	0.096070	0.465089	0.750302
	C1043	C	0.118492	0.375500	0.733298
	H1044	H	0.108109	0.216135	0.741362
	H1045	H	0.092590	0.216426	0.752266
	H1046	H	0.104117	0.283809	0.836409
	H1047	H	0.090822	0.284114	0.814559
	H1048	H	0.067755	0.126392	0.754272
	H1049	H	0.069032	0.375437	0.801148
	H1050	H	0.005363	0.375786	0.816748
	H1051	H	0.131698	0.124849	0.738819
	H1052	H	0.043129	0.215646	0.762254
	H1053	H	0.026397	0.215588	0.764078
	H1054	H	0.030092	0.284758	0.814778
	H1055	H	0.045593	0.284847	0.803759
	H1056	H	0.026402	0.535449	0.764126
	H1057	H	0.043096	0.535512	0.762273
	H1058	H	0.045659	-0.033965	0.804042
	H1059	H	0.030147	-0.033495	0.815053
	H1060	H	0.090975	-0.031823	0.814196
	H1061	H	0.104228	-0.032045	0.836028
	H1062	H	0.092702	0.534490	0.752800
	H1063	H	0.108211	0.534793	0.741879
	Al1064	Al	0.062506	-0.500095	0.937529
	Al1065	Al	0.062483	-0.250089	0.937512
	Al1066	Al	0.006544	-0.249179	0.840155
	Al1067	Al	0.006557	-0.500027	0.840120
	O1068	O	0.071180	-0.458711	0.956303
	O1069	O	0.063014	-0.374983	0.926545
	O1070	O	0.061961	-0.124863	0.948481
	O1071	O	0.108890	-0.458855	1.018027
	O1072	O	0.052456	-0.459137	0.950614
	O1073	O	0.010037	-0.459143	0.986959
	O1074	O	0.052420	-0.290636	0.950651
	O1075	O	0.053768	-0.208928	0.918744
	O1076	O	0.016078	-0.208465	0.857091
	O1077	O	0.071229	-0.290594	0.956234
	O1078	O	0.072544	-0.208850	0.924390
	O1079	O	0.114974	-0.209080	0.888248
	O1080	O	0.010001	-0.290776	0.986912
	O1081	O	0.053755	-0.040976	0.918838
	O1082	O	0.016075	-0.040745	0.857144
	O1083	O	0.114943	-0.040790	0.888125
	O1084	O	0.072544	-0.040500	0.924463
	O1085	O	0.108892	-0.290854	1.017993
	O1086	O	0.000428	-0.125186	0.988898
	O1087	O	0.124493	-0.374712	0.886055
	C1088	C	0.093693	-0.285937	0.993497
	C1089	C	0.097535	-0.375128	0.999797
	C1090	C	0.093635	-0.464117	0.993547
	C1091	C	0.086152	-0.463852	0.981299
	C1092	C	0.082332	-0.374654	0.974962
	C1093	C	0.086217	-0.285761	0.981230
	C1094	C	0.074362	-0.374484	0.961433
	C1095	C	0.105678	-0.374907	1.012951
	C1096	C	0.048855	-0.375120	0.953562
	C1097	C	0.039768	-0.375089	0.961478
	C1098	C	0.035465	-0.285813	0.965248
	C1099	C	0.026984	-0.285570	0.972410
	C1100	C	0.022633	-0.374816	0.975915
	C1101	C	0.026940	-0.464295	0.972243
	C1102	C	0.035434	-0.464443	0.965045
	C1103	C	0.013567	-0.375083	0.983876
	C1104	C	0.050629	-0.124982	0.913583
	C1105	C	0.042660	-0.125037	0.900078
	C1106	C	0.038811	-0.036172	0.893815
	C1107	C	0.031314	-0.036031	0.881545
	C1108	C	0.027464	-0.124805	0.875225
	C1109	C	0.031354	-0.213856	0.881362
	C1110	C	0.038852	-0.214061	0.893644
	C1111	C	0.019310	-0.124730	0.862166
	C1112	C	0.076124	-0.124587	0.921490
	C1113	C	0.085172	-0.124740	0.913504
	C1114	C	0.089493	-0.213961	0.909918
	C1115	C	0.097970	-0.214065	0.902743
	C1116	C	0.102316	-0.124951	0.899111
	C1117	C	0.097996	-0.035629	0.902682
	C1118	C	0.089511	-0.035614	0.909873
	C1119	C	0.111399	-0.124876	0.891196
	H1120	H	0.101259	-0.282822	0.899986
	H1121	H	0.086217	-0.282953	0.912848
	H1122	H	0.096628	-0.216985	0.998247
	H1123	H	0.083359	-0.216704	0.976348
	H1124	H	0.063472	-0.375288	0.914446
	H1125	H	0.061342	-0.124625	0.960523
	H1126	H	0.000942	-0.124474	0.976768
	H1127	H	0.123800	-0.374499	0.898049
	H1128	H	0.041763	-0.283000	0.898405
	H1129	H	0.028463	-0.282772	0.876498
	H1130	H	0.023742	-0.216506	0.975373
	H1131	H	0.038765	-0.216756	0.962450
	H1132	H	0.028386	0.032859	0.876863
	H1133	H	0.041672	0.032578	0.898698
	H1134	H	0.038715	-0.533127	0.962146
	H1135	H	0.023616	-0.533094	0.975085
	H1136	H	0.083251	-0.532896	0.976434
	H1137	H	0.096538	-0.533266	0.998384
	H1138	H	0.086229	0.033472	0.912805
	H1139	H	0.101322	0.033410	0.899833
	Al1140	Al	0.062540	0.000151	0.937528
	Al1141	Al	0.062489	0.250102	0.937468
	Al1142	Al	0.006577	0.250800	0.840137
	Al1143	Al	0.006611	-0.000174	0.840066
	O1144	O	0.071207	0.041314	0.956304
	O1145	O	0.063001	0.125016	0.926449
	O1146	O	0.062002	0.375215	0.948481
	O1147	O	0.108815	0.040868	1.018043
	O1148	O	0.052454	0.041132	0.950643
	O1149	O	0.010028	0.040798	0.986823
	O1150	O	0.052431	0.209304	0.950507
	O1151	O	0.053843	0.291279	0.918613
	O1152	O	0.016065	0.291122	0.857145
	O1153	O	0.071234	0.209435	0.956172
	O1154	O	0.072577	0.291244	0.924475
	O1155	O	0.114942	0.291281	0.888156
	O1156	O	0.010033	0.209228	0.986892
	O1157	O	0.053767	0.459188	0.918788
	O1158	O	0.016098	0.459186	0.857076
	O1159	O	0.114960	0.459585	0.888161
	O1160	O	0.072591	0.459618	0.924572
	O1161	O	0.108914	0.208630	1.017997
	O1162	O	0.000464	0.374943	0.989015
	O1163	O	0.124539	0.125351	0.886132
	C1164	C	0.093644	0.213731	0.993617
	C1165	C	0.097491	0.125033	0.999847
	C1166	C	0.093648	0.036412	0.993544
	C1167	C	0.086173	0.036385	0.981227
	C1168	C	0.082350	0.125248	0.974943
	C1169	C	0.086172	0.213815	0.981307
	C1170	C	0.074351	0.125468	0.961456
	C1171	C	0.105604	0.124796	1.013005
	C1172	C	0.048879	0.125092	0.953605
	C1173	C	0.039811	0.125160	0.961578
	C1174	C	0.035479	0.214475	0.965176
	C1175	C	0.026987	0.214601	0.972363
	C1176	C	0.022670	0.125059	0.975969
	C1177	C	0.026994	0.035814	0.972307
	C1178	C	0.035464	0.035781	0.965144
	C1179	C	0.013599	0.124942	0.983892
	C1180	C	0.050647	0.375184	0.913495
	C1181	C	0.042655	0.375163	0.900028
	C1182	C	0.038753	0.464127	0.893862
	C1183	C	0.031258	0.464214	0.881569
	C1184	C	0.027449	0.375232	0.875231
	C1185	C	0.031379	0.286239	0.881324
	C1186	C	0.038881	0.286294	0.893602
	C1187	C	0.019325	0.375200	0.862135
	C1188	C	0.076131	0.375527	0.921500
	C1189	C	0.085193	0.375376	0.913561
	C1190	C	0.089530	0.286263	0.909955
	C1191	C	0.098002	0.286265	0.902730
	C1192	C	0.102317	0.375367	0.899078
	C1193	C	0.097990	0.464400	0.902705
	C1194	C	0.089515	0.464473	0.909923
	C1195	C	0.111357	0.375486	0.891077
	H1196	H	0.101295	0.217514	0.899777
	H1197	H	0.086240	0.217311	0.912848
	H1198	H	0.096526	0.282499	0.998457
	H1199	H	0.083285	0.282614	0.976542
	H1200	H	0.063518	0.124502	0.914317
	H1201	H	0.061573	0.375170	0.960526
	H1202	H	0.000899	0.375372	0.976941
	H1203	H	0.124138	0.125547	0.898082
	H1204	H	0.041796	0.217250	0.898280
	H1205	H	0.028574	0.217286	0.876395
	H1206	H	0.023655	0.283267	0.975265
	H1207	H	0.038800	0.283383	0.962310
	H1208	H	0.028362	0.533194	0.876844
	H1209	H	0.041579	0.533122	0.898748
	H1210	H	0.038759	-0.033024	0.962304
	H1211	H	0.023700	-0.033193	0.975111
	H1212	H	0.083292	-0.032221	0.976433
	H1213	H	0.096507	-0.032521	0.998328
	H1214	H	0.086213	0.533238	0.912769
	H1215	H	0.101226	0.532923	0.899735
	Al1216	Al	0.187472	-0.500194	0.062430
	Al1217	Al	0.187507	-0.250189	0.062515
	Al1218	Al	0.118395	-0.250490	0.035066
	Al1219	Al	0.118408	-0.499682	0.035031
	O1220	O	0.198345	-0.459282	0.076068
	O1221	O	0.186745	-0.375206	0.051075
	O1222	O	0.188266	-0.124968	0.073862
	O1223	O	0.246066	-0.459433	0.075120
	O1224	O	0.178424	-0.459499	0.078487
	O1225	O	0.133919	-0.459434	0.108620
	O1226	O	0.178434	-0.291215	0.078508
	O1227	O	0.176593	-0.209030	0.049171
	O1228	O	0.128841	-0.208909	0.050043
	O1229	O	0.198368	-0.291124	0.076075
	O1230	O	0.196551	-0.208913	0.046488
	O1231	O	0.240984	-0.209225	0.016028
	O1232	O	0.134063	-0.291260	0.108977
	O1233	O	0.176595	-0.040693	0.048999
	O1234	O	0.128854	-0.040556	0.049911
	O1235	O	0.240948	-0.040949	0.015917
	O1236	O	0.196595	-0.040714	0.046512
	O1237	O	0.246096	-0.291197	0.074958
	O1238	O	0.124228	-0.125338	0.113461
	O1239	O	0.250834	-0.374992	0.011235
	C1240	C	0.226941	-0.285475	0.075208
	C1241	C	0.231782	-0.375382	0.074536
	C1242	C	0.226930	-0.465216	0.074999
	C1243	C	0.217508	-0.465264	0.076101
	C1244	C	0.212665	-0.375423	0.076758
	C1245	C	0.217516	-0.285670	0.076322
	C1246	C	0.202414	-0.375269	0.076360
	C1247	C	0.242012	-0.375202	0.074801
	C1248	C	0.174748	-0.375400	0.081346
	C1249	C	0.165305	-0.375418	0.088252
	C1250	C	0.160712	-0.285709	0.091069
	C1251	C	0.151780	-0.285861	0.096438
	C1252	C	0.147179	-0.375566	0.099232
	C1253	C	0.151797	-0.465314	0.096478
	C1254	C	0.160735	-0.465238	0.091139
	C1255	C	0.137692	-0.375589	0.106059
	C1256	C	0.172540	-0.124778	0.048806
	C1257	C	0.162288	-0.125094	0.048318
	C1258	C	0.157423	-0.035300	0.048803
	C1259	C	0.147986	-0.035254	0.049892
	C1260	C	0.143150	-0.125124	0.050428
	C1261	C	0.148010	-0.215023	0.049955
	C1262	C	0.157439	-0.215114	0.048897
	C1263	C	0.132905	-0.124781	0.050216
	C1264	C	0.200263	-0.124781	0.043700
	C1265	C	0.209739	-0.124900	0.036829
	C1266	C	0.214317	-0.214561	0.033979
	C1267	C	0.223222	-0.214808	0.028563
	C1268	C	0.227824	-0.125163	0.025747
	C1269	C	0.223253	-0.035304	0.028625
	C1270	C	0.214349	-0.035073	0.034015
	C1271	C	0.237275	-0.125165	0.018809
	H1272	H	0.226638	-0.284900	0.026543
	H1273	H	0.210876	-0.284442	0.035972
	H1274	H	0.230570	-0.215378	0.074829
	H1275	H	0.213854	-0.215516	0.076857
	H1276	H	0.185824	-0.374772	0.039036
	H1277	H	0.189344	-0.124492	0.085925
	H1278	H	0.123400	-0.125581	0.101343
	H1279	H	0.252075	-0.374737	0.023287
	H1280	H	0.161101	-0.285048	0.048519
	H1281	H	0.144396	-0.285149	0.050410
	H1282	H	0.148348	-0.215586	0.098403
	H1283	H	0.164146	-0.215365	0.088977
	H1284	H	0.144314	0.034812	0.050220
	H1285	H	0.161046	0.034660	0.048284
	H1286	H	0.164176	-0.535231	0.089088
	H1287	H	0.148371	-0.535405	0.098511
	H1288	H	0.213859	-0.535196	0.076453
	H1289	H	0.230569	-0.535179	0.074460
	H1290	H	0.210932	0.034942	0.036079
	H1291	H	0.226704	0.034641	0.026616
	Al1292	Al	0.187484	0.000118	0.062480
	Al1293	Al	0.187484	0.250131	0.062472
	Al1294	Al	0.118404	0.249422	0.034973
	Al1295	Al	0.118365	0.000383	0.034974
	O1296	O	0.198374	0.041234	0.075951
	O1297	O	0.186722	0.125385	0.051061
	O1298	O	0.188253	0.374828	0.073851
	O1299	O	0.246063	0.040382	0.075264
	O1300	O	0.178425	0.041071	0.078453
	O1301	O	0.134032	0.041350	0.108857
	O1302	O	0.178447	0.209077	0.078561
	O1303	O	0.176566	0.290896	0.049071
	O1304	O	0.128858	0.290576	0.049953
	O1305	O	0.198341	0.209150	0.076060
	O1306	O	0.196568	0.290941	0.046436
	O1307	O	0.241022	0.290764	0.016179
	O1308	O	0.134117	0.209302	0.109092
	O1309	O	0.176571	0.458898	0.049050
	O1310	O	0.128885	0.458960	0.049944
	O1311	O	0.240960	0.458904	0.015985
	O1312	O	0.196597	0.458667	0.046436
	O1313	O	0.246085	0.208791	0.075047
	O1314	O	0.124182	0.374553	0.113523
	O1315	O	0.250817	0.124681	0.011296
	C1316	C	0.226947	0.214562	0.075184
	C1317	C	0.231787	0.124766	0.074605
	C1318	C	0.226953	0.034823	0.075060
	C1319	C	0.217508	0.034922	0.076121
	C1320	C	0.212663	0.124781	0.076722
	C1321	C	0.217504	0.214540	0.076268
	C1322	C	0.202391	0.125146	0.076307
	C1323	C	0.242042	0.124693	0.074884
	C1324	C	0.174752	0.125016	0.081238
	C1325	C	0.165343	0.124937	0.088271
	C1326	C	0.160771	0.214812	0.091176
	C1327	C	0.151855	0.214847	0.096570
	C1328	C	0.147228	0.125014	0.099307
	C1329	C	0.151828	0.035256	0.096449
	C1330	C	0.160739	0.035142	0.091029
	C1331	C	0.137783	0.125424	0.106264
	C1332	C	0.172530	0.374940	0.048729
	C1333	C	0.162256	0.374900	0.048214
	C1334	C	0.157384	0.464630	0.048686
	C1335	C	0.147961	0.464416	0.049815
	C1336	C	0.143138	0.374419	0.050432
	C1337	C	0.147993	0.284643	0.049886
	C1338	C	0.157434	0.284894	0.048812
	C1339	C	0.132917	0.374760	0.050179
	C1340	C	0.200292	0.374780	0.043674
	C1341	C	0.209715	0.374745	0.036694
	C1342	C	0.214322	0.285059	0.033881
	C1343	C	0.223256	0.285220	0.028521
	C1344	C	0.227862	0.374862	0.025736
	C1345	C	0.223273	0.464594	0.028598
	C1346	C	0.214331	0.464532	0.033987
	C1347	C	0.237282	0.374812	0.018795
	H1348	H	0.226694	0.215044	0.026483
	H1349	H	0.210912	0.214556	0.035966
	H1350	H	0.230582	0.284679	0.074850
	H1351	H	0.213881	0.284452	0.076775
	H1352	H	0.185693	0.125713	0.038988
	H1353	H	0.189297	0.374859	0.086015
	H1354	H	0.123286	0.375061	0.101412
	H1355	H	0.252007	0.124814	0.023399
	H1356	H	0.161085	0.215120	0.048413
	H1357	H	0.144367	0.214758	0.050382
	H1358	H	0.148462	0.284880	0.098637
	H1359	H	0.164213	0.285080	0.089137
	H1360	H	0.144333	0.534346	0.050190
	H1361	H	0.161001	0.534628	0.048177
	H1362	H	0.164141	-0.035082	0.088859
	H1363	H	0.148382	-0.034804	0.098442
	H1364	H	0.213866	-0.035025	0.076516
	H1365	H	0.230593	-0.035172	0.074650
	H1366	H	0.210908	0.534694	0.036150
	H1367	H	0.226690	0.534950	0.026604
	Al1368	Al	0.194037	-0.499836	0.152489
	Al1369	Al	0.194045	-0.250456	0.152538
	Al1370	Al	0.124943	-0.250214	0.124888
	Al1371	Al	0.124936	-0.500486	0.124872
	O1372	O	0.203521	-0.459054	0.169535
	O1373	O	0.193648	-0.375105	0.141277
	O1374	O	0.194113	-0.124931	0.163808
	O1375	O	0.241261	-0.459898	0.231168
	O1376	O	0.184590	-0.459422	0.167650
	O1377	O	0.141046	-0.459977	0.200554
	O1378	O	0.184593	-0.291075	0.167699
	O1379	O	0.183532	-0.209685	0.137694
	O1380	O	0.135816	-0.209195	0.138438
	O1381	O	0.203570	-0.291132	0.169523
	O1382	O	0.203502	-0.209031	0.137884
	O1383	O	0.247074	-0.209443	0.104998
	O1384	O	0.140972	-0.291739	0.200360
	O1385	O	0.183522	-0.041456	0.137611
	O1386	O	0.135852	-0.041065	0.138279
	O1387	O	0.247123	-0.041259	0.105173
	O1388	O	0.203476	-0.040880	0.137727
	O1389	O	0.241254	-0.291603	0.231209
	O1390	O	0.131185	-0.125529	0.203884
	O1391	O	0.256635	-0.374804	0.101310
	C1392	C	0.226322	-0.286315	0.206196
	C1393	C	0.230087	-0.375731	0.212558
	C1394	C	0.226161	-0.464641	0.206417
	C1395	C	0.218675	-0.464519	0.194102
	C1396	C	0.214905	-0.375140	0.187757
	C1397	C	0.218834	-0.286150	0.193921
	C1398	C	0.206785	-0.375093	0.174549
	C1399	C	0.238092	-0.375625	0.226015
	C1400	C	0.180976	-0.375130	0.170607
	C1401	C	0.171721	-0.375381	0.178119
	C1402	C	0.167194	-0.285776	0.181213
	C1403	C	0.158445	-0.285880	0.187339
	C1404	C	0.153974	-0.375674	0.190472
	C1405	C	0.158510	-0.465120	0.187497
	C1406	C	0.167260	-0.465045	0.181354
	C1407	C	0.144676	-0.375726	0.197700
	C1408	C	0.179475	-0.125575	0.137369
	C1409	C	0.169222	-0.125213	0.137074
	C1410	C	0.164393	-0.035524	0.137726
	C1411	C	0.154952	-0.035500	0.138774
	C1412	C	0.150123	-0.125253	0.139167
	C1413	C	0.154949	-0.215009	0.138608
	C1414	C	0.164377	-0.215005	0.137541
	C1415	C	0.139875	-0.125213	0.138654
	C1416	C	0.207181	-0.125037	0.135113
	C1417	C	0.216481	-0.125163	0.127890
	C1418	C	0.221026	-0.214636	0.124973
	C1419	C	0.229776	-0.214833	0.118778
	C1420	C	0.234200	-0.125161	0.115431
	C1421	C	0.229680	-0.035671	0.118522
	C1422	C	0.220925	-0.035658	0.124685
	C1423	C	0.243463	-0.125307	0.108023
	H1424	H	0.233171	-0.284577	0.116572
	H1425	H	0.217670	-0.284355	0.127583
	H1426	H	0.229267	-0.217030	0.210858
	H1427	H	0.216011	-0.216936	0.189042
	H1428	H	0.192701	-0.375051	0.129047
	H1429	H	0.193888	-0.124698	0.176000
	H1430	H	0.130320	-0.126047	0.191756
	H1431	H	0.256668	-0.374476	0.113535
	H1432	H	0.168001	-0.285193	0.137083
	H1433	H	0.151294	-0.285302	0.138905
	H1434	H	0.155052	-0.216235	0.189669
	H1435	H	0.170531	-0.216174	0.178770
	H1436	H	0.151344	0.034839	0.139223
	H1437	H	0.168027	0.034439	0.137414
	H1438	H	0.170653	-0.534886	0.178991
	H1439	H	0.155172	-0.534783	0.190003
	H1440	H	0.215748	-0.533481	0.189375
	H1441	H	0.228991	-0.534004	0.211251
	H1442	H	0.217532	0.033939	0.126985
	H1443	H	0.233028	0.033920	0.116077
	Al1444	Al	0.194051	0.000399	0.152380
	Al1445	Al	0.194041	0.249115	0.152466
	Al1446	Al	0.124969	0.249981	0.124956
	Al1447	Al	0.124957	-0.000307	0.124866
	O1448	O	0.203502	0.041051	0.169491
	O1449	O	0.193630	0.124800	0.141238
	O1450	O	0.194128	0.374749	0.163762
	O1451	O	0.241194	0.040605	0.231254
	O1452	O	0.184554	0.040438	0.167488
	O1453	O	0.141015	0.040155	0.200446
	O1454	O	0.184561	0.208761	0.167606
	O1455	O	0.183552	0.290391	0.137513
	O1456	O	0.135849	0.291251	0.138561
	O1457	O	0.203555	0.208655	0.169481
	O1458	O	0.203512	0.290664	0.137843
	O1459	O	0.247120	0.290485	0.105094
	O1460	O	0.141044	0.208472	0.200543
	O1461	O	0.183567	0.458985	0.137600
	O1462	O	0.135881	0.459539	0.138211
	O1463	O	0.247051	0.458869	0.104957
	O1464	O	0.203504	0.458987	0.137855
	O1465	O	0.241232	0.208496	0.231196
	O1466	O	0.131217	0.374436	0.203983
	O1467	O	0.256686	0.125158	0.101322
	C1468	C	0.226271	0.213433	0.206171
	C1469	C	0.230081	0.124527	0.212537
	C1470	C	0.226205	0.035666	0.206288
	C1471	C	0.218708	0.035698	0.194027
	C1472	C	0.214876	0.124654	0.187724
	C1473	C	0.218770	0.213540	0.193902
	C1474	C	0.206755	0.124685	0.174558
	C1475	C	0.238040	0.124519	0.226023
	C1476	C	0.180942	0.124764	0.170459
	C1477	C	0.171695	0.124459	0.177985
	C1478	C	0.167162	0.214193	0.181075
	C1479	C	0.158446	0.214104	0.187301
	C1480	C	0.153994	0.124302	0.190503
	C1481	C	0.158541	0.034631	0.187499
	C1482	C	0.167262	0.034733	0.181272
	C1483	C	0.144682	0.124456	0.197698
	C1484	C	0.179507	0.374568	0.137332
	C1485	C	0.169257	0.374612	0.137013
	C1486	C	0.164417	0.464483	0.137688
	C1487	C	0.154993	0.464647	0.138744
	C1488	C	0.150141	0.374838	0.139177
	C1489	C	0.154959	0.284818	0.138625
	C1490	C	0.164387	0.284644	0.137570
	C1491	C	0.139907	0.375248	0.138737
	C1492	C	0.207173	0.374830	0.135110
	C1493	C	0.216510	0.374913	0.127997
	C1494	C	0.221026	0.285212	0.125038
	C1495	C	0.229752	0.285103	0.118855
	C1496	C	0.234198	0.374651	0.115467
	C1497	C	0.229714	0.464620	0.118614
	C1498	C	0.220989	0.464588	0.124792
	C1499	C	0.243468	0.374475	0.107977
	H1500	H	0.233146	0.215497	0.116490
	H1501	H	0.217653	0.215537	0.127516
	H1502	H	0.229177	0.282408	0.210885
	H1503	H	0.215895	0.282826	0.189110
	H1504	H	0.192743	0.124619	0.129077
	H1505	H	0.194090	0.374683	0.175953
	H1506	H	0.130548	0.374492	0.191877
	H1507	H	0.256624	0.125094	0.113569
	H1508	H	0.168015	0.214647	0.136996
	H1509	H	0.151302	0.214808	0.138919
	H1510	H	0.155036	0.283675	0.189603
	H1511	H	0.170518	0.284079	0.178494
	H1512	H	0.151350	0.534528	0.139163
	H1513	H	0.168037	0.534406	0.137235
	H1514	H	0.170672	-0.035055	0.178892
	H1515	H	0.155167	-0.035103	0.189993
	H1516	H	0.215795	-0.033407	0.189294
	H1517	H	0.229054	-0.033563	0.211080
	H1518	H	0.217552	0.534221	0.127055
	H1519	H	0.233072	0.534371	0.116048
	Al1520	Al	0.187504	-0.500243	0.312695
	Al1521	Al	0.187486	-0.250437	0.312651
	Al1522	Al	0.131568	-0.250042	0.215154
	Al1523	Al	0.131566	-0.500711	0.215187
	O1524	O	0.196173	-0.459410	0.331390
	O1525	O	0.187990	-0.375481	0.301645
	O1526	O	0.187027	-0.125401	0.323673
	O1527	O	0.233943	-0.459442	0.392829
	O1528	O	0.177455	-0.459762	0.325722
	O1529	O	0.135010	-0.459454	0.361911
	O1530	O	0.177384	-0.291209	0.325620
	O1531	O	0.178757	-0.209555	0.294010
	O1532	O	0.141122	-0.209684	0.232116
	O1533	O	0.196181	-0.291605	0.331374
	O1534	O	0.197557	-0.210031	0.299487
	O1535	O	0.239895	-0.210006	0.263047
	O1536	O	0.135052	-0.290891	0.362003
	O1537	O	0.178759	-0.041552	0.293956
	O1538	O	0.141147	-0.041853	0.232124
	O1539	O	0.239907	-0.041863	0.263031
	O1540	O	0.197507	-0.041811	0.299461
	O1541	O	0.233933	-0.291525	0.392900
	O1542	O	0.125467	-0.125404	0.364004
	O1543	O	0.249461	-0.375283	0.260923
	C1544	C	0.218672	-0.286744	0.368530
	C1545	C	0.222534	-0.375536	0.374776
	C1546	C	0.218640	-0.464205	0.368582
	C1547	C	0.211143	-0.464119	0.356333
	C1548	C	0.207310	-0.375355	0.350033
	C1549	C	0.211173	-0.286620	0.356288
	C1550	C	0.199340	-0.375535	0.336541
	C1551	C	0.230692	-0.375369	0.387874
	C1552	C	0.173877	-0.375279	0.328635
	C1553	C	0.164787	-0.375312	0.336587
	C1554	C	0.160478	-0.285729	0.340171
	C1555	C	0.151989	-0.285853	0.347411
	C1556	C	0.147671	-0.375220	0.351024
	C1557	C	0.151971	-0.464600	0.347385
	C1558	C	0.160457	-0.464475	0.340185
	C1559	C	0.138587	-0.375288	0.358992
	C1560	C	0.175610	-0.125649	0.288777
	C1561	C	0.167625	-0.125766	0.275278
	C1562	C	0.163802	-0.036822	0.268888
	C1563	C	0.156328	-0.037051	0.256589
	C1564	C	0.152470	-0.125931	0.250362
	C1565	C	0.156322	-0.214805	0.256677
	C1566	C	0.163798	-0.214801	0.268970
	C1567	C	0.144356	-0.125866	0.237179
	C1568	C	0.201116	-0.125799	0.296518
	C1569	C	0.210180	-0.125430	0.288536
	C1570	C	0.214533	-0.214574	0.285053
	C1571	C	0.223014	-0.214378	0.277826
	C1572	C	0.227305	-0.125398	0.274111
	C1573	C	0.222966	-0.036309	0.277644
	C1574	C	0.214491	-0.036354	0.284852
	C1575	C	0.236343	-0.125817	0.266008
	H1576	H	0.226310	-0.283171	0.274906
	H1577	H	0.211259	-0.283269	0.287969
	H1578	H	0.221605	-0.217935	0.373329
	H1579	H	0.208304	-0.217781	0.351428
	H1580	H	0.188463	-0.375326	0.289649
	H1581	H	0.186493	-0.125690	0.335740
	H1582	H	0.125837	-0.125129	0.351975
	H1583	H	0.248985	-0.375464	0.273016
	H1584	H	0.166673	-0.283653	0.273821
	H1585	H	0.153420	-0.283782	0.251869
	H1586	H	0.148694	-0.217154	0.350236
	H1587	H	0.163744	-0.217002	0.337271
	H1588	H	0.153446	0.031788	0.251728
	H1589	H	0.166687	0.032165	0.273659
	H1590	H	0.163735	-0.533365	0.337292
	H1591	H	0.148674	-0.533637	0.350210
	H1592	H	0.208271	-0.532979	0.351491
	H1593	H	0.221540	-0.533125	0.373391
	H1594	H	0.211205	0.032488	0.287723
	H1595	H	0.226239	0.032562	0.274664
	Al1596	Al	0.187511	-0.000414	0.312616
	Al1597	Al	0.187526	0.249497	0.312635
	Al1598	Al	0.131599	0.249848	0.215266
	Al1599	Al	0.131584	-0.000775	0.215132
	O1600	O	0.196230	0.040314	0.331317
	O1601	O	0.188031	0.124337	0.301629
	O1602	O	0.187028	0.374557	0.323676
	O1603	O	0.233893	0.040467	0.392991
	O1604	O	0.177437	0.040167	0.325611
	O1605	O	0.135040	0.040378	0.361900
	O1606	O	0.177479	0.208389	0.325665
	O1607	O	0.178786	0.290532	0.294002
	O1608	O	0.141096	0.290577	0.232324
	O1609	O	0.196225	0.208258	0.331368
	O1610	O	0.197618	0.290295	0.299733
	O1611	O	0.239931	0.290663	0.262896
	O1612	O	0.135067	0.208813	0.361912
	O1613	O	0.178776	0.458757	0.294018
	O1614	O	0.141134	0.458633	0.232190
	O1615	O	0.239900	0.459035	0.262861
	O1616	O	0.197573	0.458664	0.299635
	O1617	O	0.233959	0.208277	0.392847
	O1618	O	0.125579	0.374674	0.364112
	O1619	O	0.249433	0.124445	0.260958
	C1620	C	0.218710	0.213462	0.368576
	C1621	C	0.222549	0.124433	0.374810
	C1622	C	0.218670	0.035296	0.368628
	C1623	C	0.211177	0.035307	0.356365
	C1624	C	0.207355	0.124319	0.350043
	C1625	C	0.211219	0.213348	0.356304
	C1626	C	0.199369	0.124335	0.336501
	C1627	C	0.230696	0.124248	0.387894
	C1628	C	0.173896	0.124308	0.328623
	C1629	C	0.164805	0.124199	0.336492
	C1630	C	0.160504	0.213395	0.340106
	C1631	C	0.152025	0.213488	0.347294
	C1632	C	0.147687	0.124402	0.350921
	C1633	C	0.152020	0.035282	0.347365
	C1634	C	0.160508	0.035097	0.340194
	C1635	C	0.138618	0.124583	0.358881
	C1636	C	0.175642	0.374563	0.288770
	C1637	C	0.167659	0.374679	0.275238
	C1638	C	0.163864	0.463731	0.268843
	C1639	C	0.156392	0.463803	0.256540
	C1640	C	0.152514	0.374653	0.250331
	C1641	C	0.156291	0.285610	0.256743
	C1642	C	0.163761	0.285655	0.269054
	C1643	C	0.144339	0.374723	0.237244
	C1644	C	0.201157	0.374598	0.296662
	C1645	C	0.210209	0.374497	0.288592
	C1646	C	0.214592	0.285571	0.285105
	C1647	C	0.223040	0.285527	0.277776
	C1648	C	0.227291	0.374661	0.273897
	C1649	C	0.222938	0.463820	0.277448
	C1650	C	0.214471	0.463713	0.284776
	C1651	C	0.236339	0.374804	0.265822
	H1652	H	0.226327	0.216723	0.274947
	H1653	H	0.211360	0.216828	0.288101
	H1654	H	0.221612	0.282638	0.373328
	H1655	H	0.208345	0.282356	0.351478
	H1656	H	0.188470	0.124405	0.289630
	H1657	H	0.186551	0.374073	0.335702
	H1658	H	0.126175	0.375340	0.352175
	H1659	H	0.248957	0.125435	0.273013
	H1660	H	0.166600	0.216502	0.274037
	H1661	H	0.153359	0.216469	0.252041
	H1662	H	0.148762	0.282424	0.350123
	H1663	H	0.163819	0.282380	0.337273
	H1664	H	0.153515	0.533107	0.251712
	H1665	H	0.166764	0.532771	0.273567
	H1666	H	0.163823	-0.033828	0.337455
	H1667	H	0.148741	-0.033528	0.350331
	H1668	H	0.208257	-0.033690	0.351579
	H1669	H	0.221547	-0.033804	0.373423
	H1670	H	0.211161	0.532364	0.287638
	H1671	H	0.226179	0.532609	0.274370
	Al1672	Al	0.180892	-0.500557	0.472320
	Al1673	Al	0.180900	-0.249631	0.472314
	Al1674	Al	0.124991	-0.250377	0.375071
	Al1675	Al	0.124973	-0.500273	0.375064
	O1676	O	0.191381	-0.459265	0.487222
	O1677	O	0.180835	-0.375139	0.461032
	O1678	O	0.181301	-0.125323	0.483609
	O1679	O	0.239085	-0.458694	0.486575
	O1680	O	0.171444	-0.459504	0.486906
	O1681	O	0.127953	-0.459710	0.520072
	O1682	O	0.171443	-0.291454	0.486884
	O1683	O	0.171402	-0.209257	0.455347
	O1684	O	0.133680	-0.209538	0.393754
	O1685	O	0.191338	-0.290810	0.487445
	O1686	O	0.190391	-0.209360	0.457282
	O1687	O	0.234008	-0.209788	0.424602
	O1688	O	0.127883	-0.291549	0.519942
	O1689	O	0.171381	-0.041533	0.455429
	O1690	O	0.133661	-0.041590	0.393756
	O1691	O	0.234035	-0.041334	0.424748
	O1692	O	0.190419	-0.041039	0.457275
	O1693	O	0.239045	-0.290565	0.486636
	O1694	O	0.118405	-0.125369	0.523661
	O1695	O	0.243838	-0.375971	0.421170
	C1696	C	0.219915	-0.284988	0.486126
	C1697	C	0.224771	-0.374854	0.485791
	C1698	C	0.219924	-0.464711	0.486287
	C1699	C	0.210491	-0.464712	0.487415
	C1700	C	0.205651	-0.374877	0.487943
	C1701	C	0.210490	-0.285163	0.487214
	C1702	C	0.195397	-0.374996	0.487608
	C1703	C	0.235020	-0.374751	0.486255
	C1704	C	0.167768	-0.375463	0.489637
	C1705	C	0.158450	-0.375626	0.496857
	C1706	C	0.153962	-0.286127	0.500008
	C1707	C	0.145230	-0.285903	0.506224
	C1708	C	0.140761	-0.375577	0.509483
	C1709	C	0.145236	-0.465226	0.506291
	C1710	C	0.153977	-0.465247	0.500088
	C1711	C	0.131512	-0.375369	0.517028
	C1712	C	0.168143	-0.125383	0.450398
	C1713	C	0.159986	-0.125111	0.437306
	C1714	C	0.156103	-0.036221	0.431027
	C1715	C	0.148626	-0.036462	0.418755
	C1716	C	0.144811	-0.125461	0.412433
	C1717	C	0.148665	-0.214220	0.418780
	C1718	C	0.156143	-0.214055	0.431062
	C1719	C	0.136811	-0.125421	0.398963
	C1720	C	0.194022	-0.125219	0.454309
	C1721	C	0.203275	-0.125359	0.446850
	C1722	C	0.207754	-0.215183	0.443609
	C1723	C	0.216505	-0.215245	0.437506
	C1724	C	0.221037	-0.125616	0.434509
	C1725	C	0.216535	-0.035690	0.437598
	C1726	C	0.207772	-0.035609	0.443693
	C1727	C	0.230349	-0.125437	0.427392
	H1728	H	0.219901	-0.284935	0.435030
	H1729	H	0.204355	-0.285177	0.445900
	H1730	H	0.223537	-0.215047	0.485685
	H1731	H	0.206843	-0.215273	0.487574
	H1732	H	0.180917	-0.375195	0.448880
	H1733	H	0.182120	-0.126037	0.495740
	H1734	H	0.118574	-0.126213	0.511442
	H1735	H	0.244702	-0.375641	0.433218
	H1736	H	0.159061	-0.282935	0.435872
	H1737	H	0.145741	-0.283389	0.414014
	H1738	H	0.141885	-0.216051	0.508754
	H1739	H	0.157358	-0.216349	0.497680
	H1740	H	0.145679	0.032138	0.413988
	H1741	H	0.159001	0.032398	0.435822
	H1742	H	0.157389	-0.534836	0.497811
	H1743	H	0.141887	-0.534887	0.508859
	H1744	H	0.206868	-0.534673	0.487903
	H1745	H	0.223566	-0.534845	0.485973
	H1746	H	0.204371	0.034232	0.446043
	H1747	H	0.219942	0.034202	0.435164
	Al1748	Al	0.180944	-0.000835	0.472436
	Al1749	Al	0.180920	0.250060	0.472467
	Al1750	Al	0.124994	0.249831	0.375000
	Al1751	Al	0.124990	-0.000173	0.375016
	O1752	O	0.191418	0.040075	0.487332
	O1753	O	0.180824	0.124595	0.461185
	O1754	O	0.181332	0.374928	0.483650
	O1755	O	0.239063	0.040815	0.486539
	O1756	O	0.171516	0.040952	0.487127
	O1757	O	0.127909	0.040621	0.519900
	O1758	O	0.171468	0.208970	0.487117
	O1759	O	0.171414	0.290892	0.455413
	O1760	O	0.133710	0.290933	0.393764
	O1761	O	0.191326	0.208346	0.487494
	O1762	O	0.190366	0.290435	0.457307
	O1763	O	0.233907	0.290271	0.424420
	O1764	O	0.127886	0.208787	0.519777
	O1765	O	0.171389	0.458582	0.455420
	O1766	O	0.133732	0.458900	0.393778
	O1767	O	0.233920	0.458621	0.424458
	O1768	O	0.190371	0.458734	0.457310
	O1769	O	0.239116	0.209033	0.486473
	O1770	O	0.118335	0.375080	0.523576
	O1771	O	0.243828	0.124654	0.421131
	C1772	C	0.219936	0.214570	0.486192
	C1773	C	0.224785	0.124796	0.485766
	C1774	C	0.219938	0.034810	0.486311
	C1775	C	0.210513	0.034632	0.487442
	C1776	C	0.205670	0.124516	0.487972
	C1777	C	0.210509	0.214486	0.487333
	C1778	C	0.195417	0.124483	0.487680
	C1779	C	0.235046	0.124997	0.486188
	C1780	C	0.167818	0.124873	0.489828
	C1781	C	0.158494	0.124592	0.496981
	C1782	C	0.153993	0.214151	0.500003
	C1783	C	0.145231	0.214123	0.506138
	C1784	C	0.140758	0.124598	0.509385
	C1785	C	0.145254	0.035103	0.506298
	C1786	C	0.154020	0.035137	0.500179
	C1787	C	0.131505	0.124689	0.516866
	C1788	C	0.168191	0.374696	0.450326
	C1789	C	0.160031	0.374486	0.437263
	C1790	C	0.156160	0.463310	0.431068
	C1791	C	0.148669	0.463610	0.418778
	C1792	C	0.144871	0.374805	0.412419
	C1793	C	0.148697	0.285975	0.418720
	C1794	C	0.156202	0.285706	0.430998
	C1795	C	0.136879	0.374686	0.398927
	C1796	C	0.194009	0.374587	0.454418
	C1797	C	0.203280	0.374230	0.447043
	C1798	C	0.207733	0.284670	0.443746
	C1799	C	0.216460	0.284879	0.437532
	C1800	C	0.220955	0.374536	0.434463
	C1801	C	0.216455	0.464164	0.437545
	C1802	C	0.207736	0.463826	0.443747
	C1803	C	0.230262	0.374581	0.427263
	H1804	H	0.219840	0.215430	0.435053
	H1805	H	0.204345	0.215194	0.446074
	H1806	H	0.223583	0.284589	0.485770
	H1807	H	0.206868	0.284353	0.487834
	H1808	H	0.180805	0.124606	0.449001
	H1809	H	0.182331	0.374746	0.495710
	H1810	H	0.118341	0.374993	0.511352
	H1811	H	0.244662	0.124232	0.433244
	H1812	H	0.159122	0.216857	0.435675
	H1813	H	0.145844	0.217140	0.413870
	H1814	H	0.141862	0.283851	0.508554
	H1815	H	0.157371	0.283402	0.497563
	H1816	H	0.145798	0.532821	0.414021
	H1817	H	0.159068	0.532337	0.435831
	H1818	H	0.157407	-0.034591	0.497842
	H1819	H	0.141900	-0.034665	0.508821
	H1820	H	0.206912	-0.035380	0.488001
	H1821	H	0.223584	-0.035316	0.486001
	H1822	H	0.204345	0.533435	0.446082
	H1823	H	0.219821	0.533622	0.435070
	Al1824	Al	0.187490	-0.499325	0.562534
	Al1825	Al	0.187506	-0.249380	0.562410
	Al1826	Al	0.118405	-0.250464	0.535048
	Al1827	Al	0.118417	-0.499997	0.535010
	O1828	O	0.198415	-0.458404	0.575872
	O1829	O	0.186731	-0.374889	0.551083
	O1830	O	0.188267	-0.124274	0.573766
	O1831	O	0.246105	-0.459141	0.575309
	O1832	O	0.178507	-0.457976	0.578700
	O1833	O	0.134131	-0.458895	0.608989
	O1834	O	0.178453	-0.290007	0.578435
	O1835	O	0.176629	-0.207917	0.548791
	O1836	O	0.128921	-0.209218	0.549935
	O1837	O	0.198389	-0.290115	0.575860
	O1838	O	0.196599	-0.208937	0.546367
	O1839	O	0.241006	-0.208958	0.516178
	O1840	O	0.134082	-0.290816	0.609012
	O1841	O	0.176576	-0.039668	0.549017
	O1842	O	0.128890	-0.040843	0.550042
	O1843	O	0.240980	-0.040936	0.516019
	O1844	O	0.196534	-0.040690	0.546349
	O1845	O	0.246163	-0.290785	0.575226
	O1846	O	0.124272	-0.125008	0.613712
	O1847	O	0.250771	-0.375220	0.511276
	C1848	C	0.226993	-0.284572	0.575195
	C1849	C	0.231840	-0.374510	0.574616
	C1850	C	0.226967	-0.464347	0.575112
	C1851	C	0.217536	-0.464185	0.576143
	C1852	C	0.212699	-0.374249	0.576661
	C1853	C	0.217556	-0.284427	0.576219
	C1854	C	0.202449	-0.374132	0.576172
	C1855	C	0.242084	-0.374834	0.575014
	C1856	C	0.174790	-0.373995	0.581353
	C1857	C	0.165336	-0.373991	0.588273
	C1858	C	0.160741	-0.284273	0.591046
	C1859	C	0.151807	-0.284419	0.596459
	C1860	C	0.147242	-0.374439	0.599323
	C1861	C	0.151835	-0.464070	0.596510
	C1862	C	0.160757	-0.463884	0.591110
	C1863	C	0.137786	-0.374660	0.606214
	C1864	C	0.172535	-0.123899	0.548689
	C1865	C	0.162308	-0.124366	0.548415
	C1866	C	0.157446	-0.034598	0.548919
	C1867	C	0.148019	-0.034883	0.550044
	C1868	C	0.143191	-0.124782	0.550669
	C1869	C	0.148040	-0.214492	0.549951
	C1870	C	0.157467	-0.214249	0.548794
	C1871	C	0.132955	-0.124902	0.550274
	C1872	C	0.200262	-0.124667	0.543640
	C1873	C	0.209717	-0.124440	0.536736
	C1874	C	0.214310	-0.214310	0.533926
	C1875	C	0.223232	-0.214685	0.528550
	C1876	C	0.227848	-0.124985	0.525782
	C1877	C	0.223234	-0.035119	0.528509
	C1878	C	0.214321	-0.034763	0.533873
	C1879	C	0.237304	-0.124864	0.518859
	H1880	H	0.226647	-0.284911	0.526476
	H1881	H	0.210852	-0.284446	0.535948
	H1882	H	0.230644	-0.214518	0.574859
	H1883	H	0.213910	-0.214443	0.576597
	H1884	H	0.185750	-0.374259	0.539022
	H1885	H	0.189278	-0.124358	0.585917
	H1886	H	0.123448	-0.124705	0.601588
	H1887	H	0.251762	-0.374971	0.523408
	H1888	H	0.161131	-0.283969	0.548297
	H1889	H	0.144421	-0.284538	0.550371
	H1890	H	0.148387	-0.214267	0.598534
	H1891	H	0.164174	-0.214077	0.589056
	H1892	H	0.144335	0.034745	0.550506
	H1893	H	0.161055	0.035664	0.548549
	H1894	H	0.164197	-0.534397	0.589133
	H1895	H	0.148415	-0.534298	0.598580
	H1896	H	0.213903	-0.534252	0.576494
	H1897	H	0.230612	-0.534423	0.574650
	H1898	H	0.210888	0.035410	0.535888
	H1899	H	0.226658	0.034733	0.526410
	Al1900	Al	0.187495	0.000406	0.562369
	Al1901	Al	0.187538	0.250671	0.562515
	Al1902	Al	0.118432	0.249291	0.534797
	Al1903	Al	0.118427	0.000206	0.534926
	O1904	O	0.198451	0.040661	0.575723
	O1905	O	0.186754	0.125542	0.551049
	O1906	O	0.188265	0.375371	0.573914
	O1907	O	0.246163	0.040494	0.575285
	O1908	O	0.178504	0.041624	0.578488
	O1909	O	0.134110	0.040861	0.609032
	O1910	O	0.178500	0.209850	0.578633
	O1911	O	0.176660	0.291483	0.548992
	O1912	O	0.128953	0.289949	0.549730
	O1913	O	0.198463	0.209044	0.575804
	O1914	O	0.196636	0.291363	0.546655
	O1915	O	0.240967	0.290871	0.516048
	O1916	O	0.134015	0.208834	0.608743
	O1917	O	0.176592	0.459556	0.549180
	O1918	O	0.128859	0.458322	0.550053
	O1919	O	0.240937	0.459000	0.515945
	O1920	O	0.196548	0.459314	0.546471
	O1921	O	0.246177	0.208879	0.575233
	O1922	O	0.124266	0.375405	0.613603
	O1923	O	0.250790	0.125130	0.511329
	C1924	C	0.227041	0.214522	0.575115
	C1925	C	0.231872	0.124627	0.574641
	C1926	C	0.227024	0.034717	0.575345
	C1927	C	0.217578	0.034996	0.576348
	C1928	C	0.212756	0.124890	0.576637
	C1929	C	0.217603	0.214811	0.576143
	C1930	C	0.202503	0.124841	0.576126
	C1931	C	0.242127	0.124748	0.574999
	C1932	C	0.174801	0.125618	0.581369
	C1933	C	0.165347	0.125319	0.588277
	C1934	C	0.160740	0.214793	0.591223
	C1935	C	0.151815	0.214652	0.596550
	C1936	C	0.147205	0.124967	0.599222
	C1937	C	0.151807	0.035296	0.596393
	C1938	C	0.160734	0.035618	0.591023
	C1939	C	0.137757	0.124869	0.606141
	C1940	C	0.172578	0.375427	0.548779
	C1941	C	0.162321	0.375192	0.548317
	C1942	C	0.157456	0.464914	0.548752
	C1943	C	0.148033	0.464707	0.549866
	C1944	C	0.143206	0.374693	0.550480
	C1945	C	0.148067	0.284937	0.549861
	C1946	C	0.157501	0.285164	0.548764
	C1947	C	0.132947	0.374407	0.550141
	C1948	C	0.200282	0.375442	0.543793
	C1949	C	0.209719	0.375456	0.536847
	C1950	C	0.214316	0.285700	0.533936
	C1951	C	0.223209	0.285391	0.528476
	C1952	C	0.227827	0.374914	0.525731
	C1953	C	0.223211	0.464617	0.528500
	C1954	C	0.214310	0.464987	0.533956
	C1955	C	0.237244	0.374883	0.518752
	H1956	H	0.226637	0.215231	0.526389
	H1957	H	0.210870	0.215728	0.536034
	H1958	H	0.230660	0.284271	0.574555
	H1959	H	0.213964	0.284939	0.576342
	H1960	H	0.185700	0.125837	0.538896
	H1961	H	0.189301	0.375369	0.585950
	H1962	H	0.123329	0.375657	0.601548
	H1963	H	0.251761	0.125220	0.523448
	H1964	H	0.161164	0.215336	0.548392
	H1965	H	0.144431	0.214973	0.550340
	H1966	H	0.148360	0.284539	0.598585
	H1967	H	0.164151	0.285168	0.589154
	H1968	H	0.144386	0.534795	0.550350
	H1969	H	0.161104	0.534740	0.548343
	H1970	H	0.164164	-0.034388	0.588808
	H1971	H	0.148374	-0.034793	0.598320
	H1972	H	0.213922	-0.035086	0.576752
	H1973	H	0.230648	-0.035331	0.574955
	H1974	H	0.210885	0.535066	0.536070
	H1975	H	0.226669	0.534532	0.526428
	Al1976	Al	0.194112	-0.499195	0.652782
	Al1977	Al	0.194106	-0.249864	0.652629
	Al1978	Al	0.125027	-0.249756	0.625128
	Al1979	Al	0.125049	-0.499507	0.624979
	O1980	O	0.203666	-0.458648	0.669683
	O1981	O	0.193741	-0.374625	0.641475
	O1982	O	0.194136	-0.124930	0.664050
	O1983	O	0.241259	-0.458812	0.731536
	O1984	O	0.184628	-0.458726	0.667895
	O1985	O	0.141068	-0.458832	0.700660
	O1986	O	0.184570	-0.290298	0.667654
	O1987	O	0.183629	-0.208985	0.637655
	O1988	O	0.135948	-0.209080	0.638593
	O1989	O	0.203637	-0.290791	0.669705
	O1990	O	0.203459	-0.208361	0.637900
	O1991	O	0.247085	-0.209241	0.605212
	O1992	O	0.141078	-0.290304	0.700691
	O1993	O	0.183639	-0.040425	0.637747
	O1994	O	0.135908	-0.040778	0.638589
	O1995	O	0.247118	-0.040709	0.605370
	O1996	O	0.203558	-0.040003	0.638146
	O1997	O	0.241307	-0.290896	0.731512
	O1998	O	0.131208	-0.124808	0.704093
	O1999	O	0.256670	-0.375394	0.601538
	C2000	C	0.226333	-0.286045	0.706466
	C2001	C	0.230165	-0.374945	0.712809
	C2002	C	0.226350	-0.463860	0.706464
	C2003	C	0.218871	-0.463620	0.694128
	C2004	C	0.215019	-0.374691	0.687826
	C2005	C	0.218860	-0.285921	0.694143
	C2006	C	0.206858	-0.374667	0.674769
	C2007	C	0.238123	-0.374855	0.726338
	C2008	C	0.180965	-0.374376	0.670680
	C2009	C	0.171716	-0.374635	0.678182
	C2010	C	0.167237	-0.284704	0.681336
	C2011	C	0.158489	-0.284532	0.687534
	C2012	C	0.154031	-0.374313	0.690706
	C2013	C	0.158516	-0.464133	0.687620
	C2014	C	0.167253	-0.464223	0.681427
	C2015	C	0.144713	-0.374628	0.697905
	C2016	C	0.179594	-0.124705	0.637449
	C2017	C	0.169341	-0.124665	0.637140
	C2018	C	0.164482	-0.034798	0.637749
	C2019	C	0.155048	-0.034827	0.638849
	C2020	C	0.150226	-0.124873	0.639305
	C2021	C	0.155083	-0.214849	0.638770
	C2022	C	0.164512	-0.214671	0.637630
	C2023	C	0.139972	-0.124826	0.638899
	C2024	C	0.207165	-0.124401	0.635243
	C2025	C	0.216465	-0.124980	0.628006
	C2026	C	0.220954	-0.214678	0.624940
	C2027	C	0.229704	-0.214724	0.618837
	C2028	C	0.234189	-0.125007	0.615644
	C2029	C	0.229706	-0.035459	0.618835
	C2030	C	0.220949	-0.035310	0.624927
	C2031	C	0.243473	-0.124887	0.608242
	H2032	H	0.233093	-0.284367	0.616469
	H2033	H	0.217590	-0.284309	0.627378
	H2034	H	0.229189	-0.217244	0.711316
	H2035	H	0.215961	-0.217041	0.689483
	H2036	H	0.192730	-0.374755	0.629291
	H2037	H	0.193915	-0.124415	0.676178
	H2038	H	0.130199	-0.125330	0.691969
	H2039	H	0.256720	-0.375685	0.613749
	H2040	H	0.168159	-0.284464	0.637053
	H2041	H	0.151426	-0.284948	0.639048
	H2042	H	0.155086	-0.214725	0.689832
	H2043	H	0.170567	-0.215071	0.678781
	H2044	H	0.151399	0.035011	0.639247
	H2045	H	0.168122	0.035397	0.637321
	H2046	H	0.170616	-0.534171	0.678996
	H2047	H	0.155151	-0.533712	0.690059
	H2048	H	0.215952	-0.532412	0.689368
	H2049	H	0.229201	-0.532740	0.711319
	H2050	H	0.217572	0.034190	0.627395
	H2051	H	0.233077	0.034304	0.616478
	Al2052	Al	0.194084	0.000813	0.652804
	Al2053	Al	0.194121	0.249798	0.652871
	Al2054	Al	0.125026	0.250323	0.624977
	Al2055	Al	0.125010	-0.000009	0.625033
	O2056	O	0.203550	0.041358	0.669916
	O2057	O	0.193800	0.125347	0.641586
	O2058	O	0.194168	0.375313	0.664153
	O2059	O	0.241321	0.041141	0.731504
	O2060	O	0.184568	0.040809	0.667829
	O2061	O	0.141061	0.040994	0.700592
	O2062	O	0.184663	0.209144	0.668030
	O2063	O	0.183622	0.290856	0.638000
	O2064	O	0.135957	0.290837	0.638365
	O2065	O	0.203653	0.209388	0.669725
	O2066	O	0.203510	0.291219	0.638091
	O2067	O	0.247134	0.290841	0.605236
	O2068	O	0.141071	0.209407	0.700686
	O2069	O	0.183637	0.459418	0.637849
	O2070	O	0.135941	0.459242	0.638432
	O2071	O	0.247143	0.458967	0.605300
	O2072	O	0.203552	0.459342	0.638056
	O2073	O	0.241356	0.209231	0.731384
	O2074	O	0.131183	0.375347	0.704007
	O2075	O	0.256657	0.125115	0.601515
	C2076	C	0.226421	0.213996	0.706328
	C2077	C	0.230202	0.124935	0.712730
	C2078	C	0.226325	0.036145	0.706476
	C2079	C	0.218824	0.036238	0.694226
	C2080	C	0.215015	0.125227	0.687911
	C2081	C	0.218915	0.214119	0.694071
	C2082	C	0.206856	0.125330	0.674810
	C2083	C	0.238226	0.125202	0.726206
	C2084	C	0.181005	0.125191	0.670861
	C2085	C	0.171702	0.125175	0.678164
	C2086	C	0.167223	0.214991	0.681400
	C2087	C	0.158487	0.215094	0.687554
	C2088	C	0.154008	0.125467	0.690642
	C2089	C	0.158507	0.035678	0.687537
	C2090	C	0.167234	0.035454	0.681368
	C2091	C	0.144720	0.125381	0.697869
	C2092	C	0.179590	0.375211	0.637610
	C2093	C	0.169326	0.375445	0.637220
	C2094	C	0.164496	0.465390	0.637761
	C2095	C	0.155061	0.465381	0.638767
	C2096	C	0.150238	0.375372	0.639204
	C2097	C	0.155070	0.285428	0.638673
	C2098	C	0.164505	0.285388	0.637676
	C2099	C	0.139996	0.375082	0.638677
	C2100	C	0.207205	0.375103	0.635278
	C2101	C	0.216511	0.374966	0.628059
	C2102	C	0.221008	0.285460	0.624967
	C2103	C	0.229755	0.285284	0.618821
	C2104	C	0.234233	0.374853	0.615610
	C2105	C	0.229761	0.464453	0.618804
	C2106	C	0.221021	0.464561	0.624976
	C2107	C	0.243512	0.374942	0.608158
	H2108	H	0.233108	0.215461	0.616346
	H2109	H	0.217622	0.215909	0.627374
	H2110	H	0.229379	0.282875	0.711004
	H2111	H	0.216079	0.283391	0.689206
	H2112	H	0.193074	0.125460	0.629488
	H2113	H	0.193997	0.375654	0.676361
	H2114	H	0.130199	0.375175	0.691876
	H2115	H	0.256577	0.125385	0.613693
	H2116	H	0.168150	0.215611	0.637275
	H2117	H	0.151444	0.215299	0.639099
	H2118	H	0.155119	0.284581	0.689974
	H2119	H	0.170644	0.284520	0.679083
	H2120	H	0.151428	0.535546	0.639262
	H2121	H	0.168139	0.535395	0.637438
	H2122	H	0.170654	-0.034453	0.679035
	H2123	H	0.155116	-0.033855	0.689991
	H2124	H	0.215908	-0.032849	0.689465
	H2125	H	0.229191	-0.032880	0.711273
	H2126	H	0.217626	0.534198	0.627359
	H2127	H	0.233138	0.533923	0.616374
	Al2128	Al	0.187525	-0.499713	0.812666
	Al2129	Al	0.187584	-0.249288	0.812720
	Al2130	Al	0.131609	-0.249276	0.715344
	Al2131	Al	0.131609	-0.499823	0.715238
	O2132	O	0.196218	-0.458880	0.831367
	O2133	O	0.188042	-0.374613	0.801694
	O2134	O	0.187022	-0.124564	0.823751
	O2135	O	0.233945	-0.459218	0.893110
	O2136	O	0.177485	-0.459008	0.825754
	O2137	O	0.135053	-0.458907	0.861989
	O2138	O	0.177471	-0.290857	0.825704
	O2139	O	0.178838	-0.208968	0.793922
	O2140	O	0.141114	-0.208813	0.732343
	O2141	O	0.196254	-0.290742	0.831456
	O2142	O	0.197591	-0.208594	0.799581
	O2143	O	0.239940	-0.209120	0.763106
	O2144	O	0.135051	-0.290586	0.861966
	O2145	O	0.178837	-0.041057	0.793963
	O2146	O	0.141102	-0.040706	0.732329
	O2147	O	0.240029	-0.040663	0.763289
	O2148	O	0.197613	-0.040236	0.799660
	O2149	O	0.233920	-0.291168	0.893084
	O2150	O	0.125478	-0.124709	0.864018
	O2151	O	0.249510	-0.374810	0.761201
	C2152	C	0.218735	-0.286422	0.868599
	C2153	C	0.222540	-0.375351	0.874992
	C2154	C	0.218616	-0.464352	0.868900
	C2155	C	0.211114	-0.464349	0.856622
	C2156	C	0.207358	-0.375336	0.850115
	C2157	C	0.211223	-0.286287	0.856359
	C2158	C	0.199376	-0.375087	0.836665
	C2159	C	0.230697	-0.375218	0.888057
	C2160	C	0.173927	-0.374764	0.828753
	C2161	C	0.164835	-0.374630	0.836697
	C2162	C	0.160495	-0.285519	0.840263
	C2163	C	0.152013	-0.285688	0.847483
	C2164	C	0.147708	-0.374857	0.851138
	C2165	C	0.152027	-0.464038	0.847493
	C2166	C	0.160517	-0.463803	0.840319
	C2167	C	0.138619	-0.374700	0.859049
	C2168	C	0.175697	-0.124973	0.788757
	C2169	C	0.167695	-0.125048	0.775236
	C2170	C	0.163877	-0.036067	0.768911
	C2171	C	0.156383	-0.035796	0.756645
	C2172	C	0.152493	-0.124827	0.750454
	C2173	C	0.156320	-0.213901	0.756743
	C2174	C	0.163805	-0.213983	0.768987
	C2175	C	0.144341	-0.124642	0.737324
	C2176	C	0.201169	-0.124393	0.796599
	C2177	C	0.210238	-0.124707	0.788646
	C2178	C	0.214556	-0.214089	0.785041
	C2179	C	0.223036	-0.214075	0.777829
	C2180	C	0.227360	-0.124804	0.774183
	C2181	C	0.223050	-0.035634	0.777818
	C2182	C	0.214564	-0.035567	0.785002
	C2183	C	0.236443	-0.124832	0.766207
	H2184	H	0.226351	-0.282747	0.775059
	H2185	H	0.211266	-0.282785	0.787901
	H2186	H	0.221673	-0.217454	0.873263
	H2187	H	0.208358	-0.217246	0.851528
	H2188	H	0.188468	-0.374220	0.789629
	H2189	H	0.186300	-0.124689	0.835720
	H2190	H	0.126022	-0.124455	0.851967
	H2191	H	0.248868	-0.374948	0.773170
	H2192	H	0.166663	-0.282734	0.773794
	H2193	H	0.153422	-0.282814	0.751981
	H2194	H	0.148705	-0.216809	0.850325
	H2195	H	0.163806	-0.216635	0.837416
	H2196	H	0.153527	0.033209	0.751702
	H2197	H	0.166811	0.032705	0.773669
	H2198	H	0.163806	-0.532690	0.837444
	H2199	H	0.148726	-0.532956	0.850325
	H2200	H	0.208158	-0.533350	0.851998
	H2201	H	0.221465	-0.533248	0.873790
	H2202	H	0.211251	0.033440	0.787793
	H2203	H	0.226367	0.033469	0.774934
	Al2204	Al	0.187564	0.000328	0.812740
	Al2205	Al	0.187504	0.250474	0.812676
	Al2206	Al	0.131603	0.251104	0.715280
	Al2207	Al	0.131611	0.000198	0.715278
	O2208	O	0.196219	0.041373	0.831481
	O2209	O	0.188041	0.125304	0.801699
	O2210	O	0.187028	0.375391	0.823696
	O2211	O	0.233918	0.041310	0.893151
	O2212	O	0.177503	0.040905	0.825854
	O2213	O	0.135056	0.040972	0.862003
	O2214	O	0.177534	0.209047	0.825875
	O2215	O	0.178761	0.291053	0.793911
	O2216	O	0.141109	0.291188	0.732263
	O2217	O	0.196285	0.209425	0.831388
	O2218	O	0.197555	0.291304	0.799566
	O2219	O	0.240028	0.291538	0.763211
	O2220	O	0.135077	0.209498	0.862016
	O2221	O	0.178765	0.459102	0.793979
	O2222	O	0.141108	0.459102	0.732160
	O2223	O	0.239987	0.459617	0.763234
	O2224	O	0.197578	0.459311	0.799504
	O2225	O	0.233932	0.209382	0.893165
	O2226	O	0.125506	0.375464	0.864063
	O2227	O	0.249544	0.125345	0.761237
	C2228	C	0.218684	0.214214	0.868805
	C2229	C	0.222525	0.125309	0.875054
	C2230	C	0.218693	0.036625	0.868737
	C2231	C	0.211203	0.036775	0.856434
	C2232	C	0.207381	0.125600	0.850156
	C2233	C	0.211196	0.214426	0.856479
	C2234	C	0.199378	0.125508	0.836633
	C2235	C	0.230701	0.125436	0.888127
	C2236	C	0.173926	0.125207	0.828801
	C2237	C	0.164846	0.125224	0.836725
	C2238	C	0.160546	0.214462	0.840475
	C2239	C	0.152053	0.214576	0.847645
	C2240	C	0.147699	0.125231	0.851076
	C2241	C	0.152027	0.035915	0.847425
	C2242	C	0.160521	0.035780	0.840259
	C2243	C	0.138619	0.125016	0.858999
	C2244	C	0.175603	0.375245	0.788738
	C2245	C	0.167647	0.375239	0.775213
	C2246	C	0.163801	0.463986	0.768877
	C2247	C	0.156311	0.463939	0.756593
	C2248	C	0.152461	0.374931	0.750350
	C2249	C	0.156313	0.286058	0.756665
	C2250	C	0.163817	0.286286	0.768918
	C2251	C	0.144319	0.375202	0.737244
	C2252	C	0.201127	0.375277	0.796508
	C2253	C	0.210227	0.374953	0.788589
	C2254	C	0.214560	0.285885	0.784984
	C2255	C	0.223068	0.285890	0.777834
	C2256	C	0.227369	0.375067	0.774171
	C2257	C	0.223052	0.464014	0.777803
	C2258	C	0.214548	0.463888	0.784941
	C2259	C	0.236448	0.375393	0.766234
	H2260	H	0.226346	0.216980	0.774992
	H2261	H	0.211291	0.217279	0.787873
	H2262	H	0.221601	0.283060	0.873552
	H2263	H	0.208319	0.283326	0.851664
	H2264	H	0.188373	0.125413	0.789622
	H2265	H	0.186591	0.375780	0.835704
	H2266	H	0.125876	0.375618	0.851962
	H2267	H	0.249116	0.125466	0.773363
	H2268	H	0.166652	0.217381	0.773815
	H2269	H	0.153405	0.217425	0.751920
	H2270	H	0.148798	0.283318	0.850594
	H2271	H	0.163858	0.283299	0.837755
	H2272	H	0.153422	0.532845	0.751826
	H2273	H	0.166673	0.532772	0.773771
	H2274	H	0.163803	-0.033028	0.837308
	H2275	H	0.148711	-0.033155	0.850241
	H2276	H	0.208321	-0.031941	0.851607
	H2277	H	0.221604	-0.032229	0.873393
	H2278	H	0.211250	0.532852	0.787763
	H2279	H	0.226335	0.532885	0.774952
	Al2280	Al	0.180913	-0.500351	0.972529
	Al2281	Al	0.180862	-0.249421	0.972538
	Al2282	Al	0.125016	-0.249832	0.875051
	Al2283	Al	0.125021	-0.499639	0.875123
	O2284	O	0.191389	-0.459161	0.987485
	O2285	O	0.180853	-0.374861	0.961261
	O2286	O	0.181291	-0.124986	0.983778
	O2287	O	0.239066	-0.459247	0.986548
	O2288	O	0.171465	-0.458863	0.987162
	O2289	O	0.127870	-0.459276	1.019961
	O2290	O	0.171406	-0.290553	0.987068
	O2291	O	0.171413	-0.208552	0.955489
	O2292	O	0.133692	-0.208703	0.893772
	O2293	O	0.191360	-0.290710	0.987587
	O2294	O	0.190387	-0.209109	0.957459
	O2295	O	0.233999	-0.209285	0.924800
	O2296	O	0.127837	-0.290921	1.019909
	O2297	O	0.171356	-0.040580	0.955559
	O2298	O	0.133681	-0.040614	0.893770
	O2299	O	0.233967	-0.040824	0.924786
	O2300	O	0.190344	-0.040694	0.957407
	O2301	O	0.239086	-0.291182	0.986485
	O2302	O	0.118290	-0.124967	1.023673
	O2303	O	0.243797	-0.374876	0.921343
	C2304	C	0.219933	-0.285128	0.986354
	C2305	C	0.224783	-0.375158	0.985885
	C2306	C	0.219925	-0.464989	0.986504
	C2307	C	0.210500	-0.464872	0.987569
	C2308	C	0.205654	-0.374849	0.988046
	C2309	C	0.210510	-0.285055	0.987415
	C2310	C	0.195429	-0.374862	0.987776
	C2311	C	0.235030	-0.375211	0.986275
	C2312	C	0.167774	-0.374980	0.989891
	C2313	C	0.158452	-0.375100	0.997076
	C2314	C	0.153953	-0.285360	1.000142
	C2315	C	0.145207	-0.285248	1.006304
	C2316	C	0.140735	-0.374967	1.009530
	C2317	C	0.145215	-0.464604	1.006348
	C2318	C	0.153963	-0.464722	1.000204
	C2319	C	0.131469	-0.374987	1.016985
	C2320	C	0.168146	-0.124610	0.950504
	C2321	C	0.160003	-0.124815	0.937351
	C2322	C	0.156155	-0.035817	0.931071
	C2323	C	0.148671	-0.035794	0.918805
	C2324	C	0.144796	-0.124597	0.912542
	C2325	C	0.148613	-0.213513	0.918887
	C2326	C	0.156108	-0.213730	0.931138
	C2327	C	0.136846	-0.124818	0.898972
	C2328	C	0.193997	-0.125078	0.954521
	C2329	C	0.203273	-0.124924	0.947108
	C2330	C	0.207751	-0.214855	0.943894
	C2331	C	0.216496	-0.214750	0.937757
	C2332	C	0.221027	-0.125006	0.934789
	C2333	C	0.216552	-0.035087	0.937964
	C2334	C	0.207798	-0.035141	0.944088
	C2335	C	0.230329	-0.124978	0.927506
	H2336	H	0.219852	-0.284541	0.935239
	H2337	H	0.204341	-0.284710	0.946234
	H2338	H	0.223599	-0.215251	0.985850
	H2339	H	0.206867	-0.214982	0.987784
	H2340	H	0.180831	-0.375351	0.949029
	H2341	H	0.182246	-0.124874	0.995893
	H2342	H	0.118324	-0.124800	1.011500
	H2343	H	0.244509	-0.374173	0.933450
	H2344	H	0.158980	-0.282902	0.935970
	H2345	H	0.145736	-0.282415	0.914074
	H2346	H	0.141826	-0.215526	1.008682
	H2347	H	0.157332	-0.215778	0.997649
	H2348	H	0.145824	0.033276	0.913920
	H2349	H	0.159076	0.033420	0.935821
	H2350	H	0.157343	-0.534518	0.997828
	H2351	H	0.141849	-0.534567	1.008761
	H2352	H	0.206857	-0.534658	0.988078
	H2353	H	0.223563	-0.534787	0.986122
	H2354	H	0.204452	0.034722	0.946548
	H2355	H	0.219973	0.034577	0.935616
	Al2356	Al	0.180909	-0.000462	0.972584
	Al2357	Al	0.180933	0.250632	0.972569
	Al2358	Al	0.124999	0.250224	0.875041
	Al2359	Al	0.125003	0.000564	0.875052
	O2360	O	0.191411	0.040714	0.987497
	O2361	O	0.180808	0.125531	0.961287
	O2362	O	0.181315	0.375267	0.983783
	O2363	O	0.239084	0.041082	0.986517
	O2364	O	0.171483	0.041124	0.987282
	O2365	O	0.127855	0.040876	1.019782
	O2366	O	0.171475	0.209102	0.987297
	O2367	O	0.171409	0.291142	0.955621
	O2368	O	0.133731	0.291201	0.893744
	O2369	O	0.191351	0.209174	0.987583
	O2370	O	0.190383	0.291222	0.957467
	O2371	O	0.234004	0.291186	0.924699
	O2372	O	0.127874	0.208950	1.019859
	O2373	O	0.171403	0.459045	0.955472
	O2374	O	0.133722	0.459343	0.893787
	O2375	O	0.233976	0.458939	0.924675
	O2376	O	0.190428	0.459128	0.957425
	O2377	O	0.239112	0.209205	0.986491
	O2378	O	0.118298	0.374780	1.023686
	O2379	O	0.243838	0.125018	0.921292
	C2380	C	0.219940	0.215394	0.986287
	C2381	C	0.224791	0.125357	0.985861
	C2382	C	0.219964	0.035478	0.986394
	C2383	C	0.210536	0.035441	0.987543
	C2384	C	0.205680	0.125387	0.988085
	C2385	C	0.210505	0.215232	0.987424
	C2386	C	0.195430	0.125124	0.987839
	C2387	C	0.235044	0.125291	0.986257
	C2388	C	0.167810	0.124992	0.989969
	C2389	C	0.158490	0.125189	0.997092
	C2390	C	0.153989	0.214780	1.000135
	C2391	C	0.145245	0.214514	1.006248
	C2392	C	0.140754	0.124881	1.009429
	C2393	C	0.145214	0.035353	1.006147
	C2394	C	0.153972	0.035543	1.000055
	C2395	C	0.131488	0.124942	1.016873
	C2396	C	0.168154	0.375155	0.950545
	C2397	C	0.160010	0.374969	0.937382
	C2398	C	0.156161	0.463998	0.931117
	C2399	C	0.148669	0.463953	0.918794
	C2400	C	0.144833	0.375005	0.912543
	C2401	C	0.148698	0.286034	0.918795
	C2402	C	0.156180	0.286091	0.931142
	C2403	C	0.136871	0.375185	0.898965
	C2404	C	0.194044	0.375160	0.954522
	C2405	C	0.203277	0.374901	0.947012
	C2406	C	0.207785	0.285473	0.943922
	C2407	C	0.216537	0.285461	0.937753
	C2408	C	0.221007	0.374838	0.934611
	C2409	C	0.216482	0.464278	0.937572
	C2410	C	0.207739	0.464307	0.943738
	C2411	C	0.230317	0.374923	0.927450
	H2412	H	0.219933	0.215950	0.935367
	H2413	H	0.204433	0.215583	0.946400
	H2414	H	0.223576	0.285597	0.985775
	H2415	H	0.206848	0.285452	0.987819
	H2416	H	0.180812	0.124941	0.949047
	H2417	H	0.182286	0.375529	0.995906
	H2418	H	0.118317	0.374859	1.011543
	H2419	H	0.244746	0.125145	0.933340
	H2420	H	0.159062	0.216874	0.935907
	H2421	H	0.145850	0.216723	0.913916
	H2422	H	0.141857	0.284139	1.008581
	H2423	H	0.157379	0.284362	0.997696
	H2424	H	0.145835	0.533112	0.913949
	H2425	H	0.159038	0.533115	0.935897
	H2426	H	0.157351	-0.033908	0.997564
	H2427	H	0.141816	-0.034405	1.008426
	H2428	H	0.206894	-0.034852	0.988007
	H2429	H	0.223585	-0.034669	0.986002
	H2430	H	0.204375	0.534022	0.946164
	H2431	H	0.219833	0.533904	0.935070
	Al2432	Al	0.319090	-0.499603	0.027593
	Al2433	Al	0.319087	-0.250516	0.027587
	Al2434	Al	0.249990	-0.249773	-0.000076
	Al2435	Al	0.250003	-0.500252	-0.000068
	O2436	O	0.328614	-0.458814	0.044589
	O2437	O	0.318707	-0.374873	0.016367
	O2438	O	0.319136	-0.124862	0.038856
	O2439	O	0.366265	-0.458833	0.106371
	O2440	O	0.309667	-0.458860	0.042786
	O2441	O	0.266055	-0.459114	0.075460
	O2442	O	0.309605	-0.290747	0.042624
	O2443	O	0.308612	-0.208997	0.012565
	O2444	O	0.260874	-0.209024	0.013439
	O2445	O	0.328617	-0.290945	0.044597
	O2446	O	0.328524	-0.208953	0.012946
	O2447	O	0.372141	-0.209279	-0.019775
	O2448	O	0.266015	-0.290945	0.075311
	O2449	O	0.308590	-0.040607	0.012677
	O2450	O	0.260874	-0.040753	0.013524
	O2451	O	0.372190	-0.041147	-0.019536
	O2452	O	0.328564	-0.040684	0.012975
	O2453	O	0.366214	-0.291038	0.106478
	O2454	O	0.256204	-0.124927	0.078809
	O2455	O	0.381669	-0.375171	-0.023480
	C2456	C	0.351282	-0.285736	0.081458
	C2457	C	0.355122	-0.374737	0.087745
	C2458	C	0.351294	-0.463714	0.081410
	C2459	C	0.343816	-0.463792	0.069106
	C2460	C	0.339987	-0.374798	0.062759
	C2461	C	0.343797	-0.285728	0.069146
	C2462	C	0.331833	-0.374782	0.049641
	C2463	C	0.363108	-0.374903	0.101208
	C2464	C	0.306003	-0.375039	0.045632
	C2465	C	0.296766	-0.374959	0.053134
	C2466	C	0.292272	-0.285404	0.056297
	C2467	C	0.283543	-0.285522	0.062463
	C2468	C	0.279024	-0.375069	0.065505
	C2469	C	0.283528	-0.464671	0.062394
	C2470	C	0.292259	-0.464535	0.056270
	C2471	C	0.269713	-0.375030	0.072630
	C2472	C	0.304545	-0.124811	0.012371
	C2473	C	0.294310	-0.124900	0.012040
	C2474	C	0.289477	-0.034930	0.012702
	C2475	C	0.280050	-0.034930	0.013824
	C2476	C	0.275190	-0.124732	0.014258
	C2477	C	0.280031	-0.214571	0.013608
	C2478	C	0.289459	-0.214723	0.012493
	C2479	C	0.264935	-0.124896	0.013817
	C2480	C	0.332206	-0.125023	0.010199
	C2481	C	0.341538	-0.125243	0.003092
	C2482	C	0.346028	-0.214829	-0.000082
	C2483	C	0.354777	-0.214768	-0.006242
	C2484	C	0.359274	-0.125100	-0.009316
	C2485	C	0.354804	-0.035616	-0.006093
	C2486	C	0.346049	-0.035731	0.000053
	C2487	C	0.368530	-0.125319	-0.016778
	H2488	H	0.358142	-0.284401	-0.008790
	H2489	H	0.342622	-0.284534	0.002178
	H2490	H	0.354126	-0.216799	0.086377
	H2491	H	0.340888	-0.216696	0.064410
	H2492	H	0.317806	-0.374596	0.004276
	H2493	H	0.319106	-0.124747	0.051087
	H2494	H	0.255265	-0.124626	0.066745
	H2495	H	0.381454	-0.374684	-0.011298
	H2496	H	0.293077	-0.284995	0.011982
	H2497	H	0.276387	-0.284440	0.013947
	H2498	H	0.280110	-0.216004	0.064813
	H2499	H	0.295630	-0.215500	0.053832
	H2500	H	0.276423	0.035293	0.014360
	H2501	H	0.293119	0.034971	0.012364
	H2502	H	0.295656	-0.534112	0.053767
	H2503	H	0.280128	-0.534215	0.064700
	H2504	H	0.340913	-0.532684	0.064386
	H2505	H	0.354138	-0.532593	0.086270
	H2506	H	0.342642	0.033533	0.002369
	H2507	H	0.358148	0.034109	-0.008540
	Al2508	Al	0.319068	0.000078	0.027524
	Al2509	Al	0.319069	0.249349	0.027649
	Al2510	Al	0.249994	0.250087	0.000050
	Al2511	Al	0.249999	-0.000084	-0.000078
	O2512	O	0.328568	0.041096	0.044560
	O2513	O	0.318680	0.124896	0.016321
	O2514	O	0.319196	0.374748	0.038887
	O2515	O	0.366224	0.040574	0.106360
	O2516	O	0.309594	0.040771	0.042677
	O2517	O	0.266030	0.041106	0.075412
	O2518	O	0.309590	0.209218	0.042657
	O2519	O	0.308612	0.291043	0.012635
	O2520	O	0.260906	0.290824	0.013573
	O2521	O	0.328634	0.208955	0.044563
	O2522	O	0.328515	0.291163	0.012909
	O2523	O	0.372148	0.290949	-0.019683
	O2524	O	0.265988	0.209088	0.075282
	O2525	O	0.308613	0.459493	0.012696
	O2526	O	0.260865	0.458853	0.013393
	O2527	O	0.372155	0.459114	-0.019645
	O2528	O	0.328480	0.459276	0.012769
	O2529	O	0.366290	0.208667	0.106308
	O2530	O	0.256216	0.374977	0.078797
	O2531	O	0.381733	0.125027	-0.023449
	C2532	C	0.351274	0.213591	0.081366
	C2533	C	0.355101	0.124698	0.087666
	C2534	C	0.351272	0.035703	0.081329
	C2535	C	0.343791	0.035682	0.069032
	C2536	C	0.339963	0.124698	0.062751
	C2537	C	0.343801	0.213621	0.069043
	C2538	C	0.331837	0.124939	0.049596
	C2539	C	0.363138	0.124566	0.101107
	C2540	C	0.305977	0.125028	0.045608
	C2541	C	0.296704	0.125173	0.052980
	C2542	C	0.292233	0.214748	0.056209
	C2543	C	0.283479	0.214758	0.062333
	C2544	C	0.278977	0.125031	0.065353
	C2545	C	0.283469	0.035335	0.062310
	C2546	C	0.292239	0.035446	0.056198
	C2547	C	0.269678	0.125155	0.072590
	C2548	C	0.304564	0.375286	0.012423
	C2549	C	0.294308	0.375284	0.012129
	C2550	C	0.289446	0.465038	0.012603
	C2551	C	0.280018	0.465002	0.013669
	C2552	C	0.275194	0.375093	0.014201
	C2553	C	0.280043	0.285270	0.013685
	C2554	C	0.289475	0.285280	0.012622
	C2555	C	0.264943	0.374900	0.013787
	C2556	C	0.332173	0.375250	0.010119
	C2557	C	0.341486	0.374880	0.002994
	C2558	C	0.346015	0.285387	0.000044
	C2559	C	0.354774	0.285542	-0.006045
	C2560	C	0.359252	0.375111	-0.009309
	C2561	C	0.354751	0.464588	-0.006152
	C2562	C	0.345982	0.464410	-0.000094
	C2563	C	0.368547	0.375054	-0.016714
	H2564	H	0.358198	0.215891	-0.008302
	H2565	H	0.342647	0.215784	0.002484
	H2566	H	0.354180	0.282494	0.086136
	H2567	H	0.340913	0.282658	0.064194
	H2568	H	0.317892	0.125433	0.004329
	H2569	H	0.319273	0.375057	0.051084
	H2570	H	0.255465	0.374811	0.066683
	H2571	H	0.381600	0.125759	-0.011261
	H2572	H	0.293143	0.215481	0.012168
	H2573	H	0.276400	0.215332	0.013996
	H2574	H	0.280126	0.284358	0.064820
	H2575	H	0.295628	0.284605	0.053937
	H2576	H	0.276372	0.535180	0.013953
	H2577	H	0.293069	0.535035	0.012099
	H2578	H	0.295626	-0.034457	0.053947
	H2579	H	0.280104	-0.033901	0.064800
	H2580	H	0.340912	-0.033346	0.064171
	H2581	H	0.354178	-0.033127	0.086124
	H2582	H	0.342600	0.533829	0.002251
	H2583	H	0.358128	0.534151	-0.008507
	Al2584	Al	0.312423	-0.500279	0.187448
	Al2585	Al	0.312496	-0.250306	0.187406
	Al2586	Al	0.256574	-0.249984	0.089968
	Al2587	Al	0.256583	-0.500372	0.090002
	O2588	O	0.321169	-0.459658	0.206200
	O2589	O	0.312991	-0.375345	0.176434
	O2590	O	0.311963	-0.125334	0.198473
	O2591	O	0.358945	-0.459673	0.267731
	O2592	O	0.302425	-0.458945	0.200572
	O2593	O	0.260035	-0.459109	0.236870
	O2594	O	0.302452	-0.290677	0.200543
	O2595	O	0.303779	-0.208984	0.168762
	O2596	O	0.266066	-0.208562	0.107034
	O2597	O	0.321186	-0.291458	0.206150
	O2598	O	0.322536	-0.209387	0.174263
	O2599	O	0.364979	-0.209242	0.138096
	O2600	O	0.260017	-0.290903	0.236868
	O2601	O	0.303727	-0.040774	0.168756
	O2602	O	0.266076	-0.041002	0.107164
	O2603	O	0.364998	-0.040823	0.138108
	O2604	O	0.322547	-0.041160	0.174312
	O2605	O	0.358809	-0.291644	0.267890
	O2606	O	0.250370	-0.125353	0.238881
	O2607	O	0.374473	-0.374996	0.136076
	C2608	C	0.343527	-0.286797	0.243697
	C2609	C	0.347450	-0.375890	0.249771
	C2610	C	0.343626	-0.464856	0.243417
	C2611	C	0.336120	-0.464995	0.231150
	C2612	C	0.332266	-0.375855	0.224950
	C2613	C	0.336026	-0.286900	0.231422
	C2614	C	0.324317	-0.375653	0.211370
	C2615	C	0.355645	-0.375741	0.262769
	C2616	C	0.298872	-0.374723	0.203556
	C2617	C	0.289783	-0.374957	0.211479
	C2618	C	0.285476	-0.285695	0.215144
	C2619	C	0.276982	-0.285553	0.222329
	C2620	C	0.272655	-0.374713	0.225930
	C2621	C	0.276972	-0.463914	0.222250
	C2622	C	0.285452	-0.464173	0.215091
	C2623	C	0.263594	-0.374910	0.233900
	C2624	C	0.300602	-0.124976	0.163548
	C2625	C	0.292616	-0.124877	0.150127
	C2626	C	0.288791	-0.035803	0.143824
	C2627	C	0.281302	-0.035773	0.131499
	C2628	C	0.277437	-0.124747	0.125268
	C2629	C	0.281308	-0.213642	0.131474
	C2630	C	0.288796	-0.213568	0.143780
	C2631	C	0.269305	-0.124843	0.112132
	C2632	C	0.326102	-0.125175	0.171286
	C2633	C	0.335217	-0.125075	0.163424
	C2634	C	0.339522	-0.214479	0.159751
	C2635	C	0.348032	-0.214609	0.152624
	C2636	C	0.352371	-0.125052	0.149138
	C2637	C	0.348057	-0.035802	0.152773
	C2638	C	0.339546	-0.035571	0.159867
	C2639	C	0.361431	-0.125021	0.141122
	H2640	H	0.351289	-0.283782	0.149718
	H2641	H	0.336167	-0.283429	0.162464
	H2642	H	0.346376	-0.217986	0.248535
	H2643	H	0.333117	-0.217896	0.226727
	H2644	H	0.313471	-0.375070	0.164377
	H2645	H	0.311329	-0.124579	0.210537
	H2646	H	0.250837	-0.125601	0.226834
	H2647	H	0.373912	-0.374546	0.148107
	H2648	H	0.291681	-0.282716	0.148530
	H2649	H	0.278424	-0.282636	0.126670
	H2650	H	0.273696	-0.216920	0.225273
	H2651	H	0.288789	-0.216920	0.212316
	H2652	H	0.278405	0.033520	0.126741
	H2653	H	0.291677	0.033504	0.148647
	H2654	H	0.288736	-0.533078	0.212215
	H2655	H	0.273695	-0.532813	0.225102
	H2656	H	0.333301	-0.533863	0.226207
	H2657	H	0.346551	-0.533727	0.248064
	H2658	H	0.336273	0.033382	0.162615
	H2659	H	0.351355	0.033307	0.149934
	Al2660	Al	0.312508	-0.000201	0.187450
	Al2661	Al	0.312453	0.249664	0.187491
	Al2662	Al	0.256558	0.250411	0.089987
	Al2663	Al	0.256581	-0.000738	0.090100
	O2664	O	0.321241	0.040165	0.206076
	O2665	O	0.312977	0.124810	0.176444
	O2666	O	0.311995	0.374648	0.198468
	O2667	O	0.358894	0.040577	0.267799
	O2668	O	0.302461	0.040435	0.200581
	O2669	O	0.259984	0.040022	0.236920
	O2670	O	0.302399	0.208818	0.200614
	O2671	O	0.303695	0.290747	0.168823
	O2672	O	0.266131	0.291325	0.106919
	O2673	O	0.321194	0.208323	0.206201
	O2674	O	0.322526	0.290288	0.174441
	O2675	O	0.364932	0.290603	0.138060
	O2676	O	0.259990	0.208205	0.236782
	O2677	O	0.303730	0.458807	0.168788
	O2678	O	0.266085	0.459151	0.106965
	O2679	O	0.364910	0.458894	0.138096
	O2680	O	0.322523	0.458702	0.174390
	O2681	O	0.358862	0.208760	0.267863
	O2682	O	0.250488	0.374227	0.238894
	O2683	O	0.374524	0.124882	0.136022
	C2684	C	0.343566	0.213702	0.243638
	C2685	C	0.347477	0.124546	0.249782
	C2686	C	0.343668	0.035330	0.243437
	C2687	C	0.336171	0.035082	0.231186
	C2688	C	0.332307	0.124262	0.224936
	C2689	C	0.336077	0.213601	0.231353
	C2690	C	0.324342	0.124327	0.211387
	C2691	C	0.355622	0.124587	0.262839
	C2692	C	0.298869	0.124362	0.203626
	C2693	C	0.289793	0.123940	0.211541
	C2694	C	0.285432	0.213114	0.215097
	C2695	C	0.276951	0.213214	0.222255
	C2696	C	0.272641	0.123774	0.225965
	C2697	C	0.276971	0.034520	0.222370
	C2698	C	0.285470	0.034389	0.215193
	C2699	C	0.263568	0.124095	0.233910
	C2700	C	0.300558	0.374802	0.163593
	C2701	C	0.292598	0.374949	0.150097
	C2702	C	0.288745	0.463833	0.143796
	C2703	C	0.281270	0.463956	0.131474
	C2704	C	0.277458	0.375197	0.125117
	C2705	C	0.281307	0.286233	0.131411
	C2706	C	0.288783	0.286141	0.143724
	C2707	C	0.269326	0.375137	0.111983
	C2708	C	0.326093	0.374579	0.171460
	C2709	C	0.335165	0.374481	0.163514
	C2710	C	0.339486	0.285131	0.159858
	C2711	C	0.347970	0.285208	0.152664
	C2712	C	0.352277	0.374463	0.149050
	C2713	C	0.347959	0.463739	0.152701
	C2714	C	0.339488	0.463686	0.159913
	C2715	C	0.361360	0.374533	0.141082
	H2716	H	0.351294	0.216557	0.149831
	H2717	H	0.336202	0.216211	0.162652
	H2718	H	0.346382	0.282842	0.248590
	H2719	H	0.333098	0.282677	0.226656
	H2720	H	0.313492	0.125173	0.164373
	H2721	H	0.311540	0.375040	0.210606
	H2722	H	0.250809	0.373779	0.226870
	H2723	H	0.373938	0.125074	0.148106
	H2724	H	0.291621	0.217000	0.148640
	H2725	H	0.278476	0.217347	0.126510
	H2726	H	0.273658	0.282549	0.225066
	H2727	H	0.288727	0.282319	0.212223
	H2728	H	0.278384	0.532817	0.126695
	H2729	H	0.291537	0.532789	0.148750
	H2730	H	0.288814	-0.034571	0.212479
	H2731	H	0.273671	-0.034394	0.225315
	H2732	H	0.333306	-0.034223	0.226340
	H2733	H	0.346583	-0.033903	0.248187
	H2734	H	0.336161	0.532616	0.162790
	H2735	H	0.351246	0.532732	0.149879
	Al2736	Al	0.305905	-0.501118	0.347251
	Al2737	Al	0.305881	-0.250479	0.347240
	Al2738	Al	0.249955	-0.250262	0.249902
	Al2739	Al	0.249985	-0.500357	0.249854
	O2740	O	0.316414	-0.460223	0.362187
	O2741	O	0.305869	-0.375902	0.335980
	O2742	O	0.306310	-0.125970	0.358470
	O2743	O	0.364080	-0.459114	0.361577
	O2744	O	0.296454	-0.459491	0.361935
	O2745	O	0.252931	-0.459624	0.394897
	O2746	O	0.296458	-0.291125	0.361933
	O2747	O	0.296387	-0.209406	0.330286
	O2748	O	0.258709	-0.209342	0.268644
	O2749	O	0.316321	-0.291853	0.362369
	O2750	O	0.315413	-0.210435	0.332221
	O2751	O	0.359018	-0.209448	0.299614
	O2752	O	0.252914	-0.291587	0.394872
	O2753	O	0.296309	-0.041562	0.330419
	O2754	O	0.258699	-0.041247	0.268594
	O2755	O	0.358932	-0.041275	0.299509
	O2756	O	0.315365	-0.042148	0.332047
	O2757	O	0.364093	-0.290649	0.361475
	O2758	O	0.243390	-0.125386	0.398692
	O2759	O	0.368806	-0.375780	0.296009
	C2760	C	0.344919	-0.285125	0.361256
	C2761	C	0.349787	-0.374940	0.360737
	C2762	C	0.344973	-0.465014	0.361289
	C2763	C	0.335545	-0.465135	0.362343
	C2764	C	0.330675	-0.375258	0.362842
	C2765	C	0.335487	-0.285223	0.362339
	C2766	C	0.320419	-0.375795	0.362560
	C2767	C	0.360046	-0.374833	0.361194
	C2768	C	0.292802	-0.375372	0.364764
	C2769	C	0.283510	-0.375427	0.371983
	C2770	C	0.279023	-0.285956	0.375140
	C2771	C	0.270270	-0.285843	0.381289
	C2772	C	0.265787	-0.375469	0.384450
	C2773	C	0.270267	-0.465173	0.381237
	C2774	C	0.278999	-0.465169	0.375053
	C2775	C	0.256549	-0.375742	0.391956
	C2776	C	0.293095	-0.125473	0.325412
	C2777	C	0.284960	-0.125418	0.312211
	C2778	C	0.281102	-0.036371	0.305992
	C2779	C	0.273636	-0.036387	0.293701
	C2780	C	0.269802	-0.125083	0.287370
	C2781	C	0.273620	-0.214024	0.293658
	C2782	C	0.281093	-0.214172	0.305973
	C2783	C	0.261852	-0.125194	0.273829
	C2784	C	0.319014	-0.126096	0.329238
	C2785	C	0.328284	-0.126201	0.321803
	C2786	C	0.332761	-0.215739	0.318656
	C2787	C	0.341509	-0.215494	0.312523
	C2788	C	0.345980	-0.125884	0.309409
	C2789	C	0.341521	-0.036260	0.312539
	C2790	C	0.332771	-0.036532	0.318679
	C2791	C	0.355307	-0.125378	0.302257
	H2792	H	0.344911	-0.285099	0.310156
	H2793	H	0.329440	-0.285358	0.321066
	H2794	H	0.348550	-0.215044	0.360863
	H2795	H	0.331822	-0.215375	0.362798
	H2796	H	0.305983	-0.375751	0.323810
	H2797	H	0.307164	-0.125765	0.370626
	H2798	H	0.243460	-0.125035	0.386409
	H2799	H	0.369829	-0.375990	0.308174
	H2800	H	0.283942	-0.283107	0.310836
	H2801	H	0.270733	-0.282793	0.288808
	H2802	H	0.266882	-0.216372	0.383791
	H2803	H	0.282399	-0.216294	0.372678
	H2804	H	0.270767	0.032454	0.288902
	H2805	H	0.283956	0.032474	0.310894
	H2806	H	0.282397	-0.534680	0.372594
	H2807	H	0.266925	-0.534851	0.383744
	H2808	H	0.331917	-0.535155	0.362846
	H2809	H	0.348629	-0.535098	0.360905
	H2810	H	0.329385	0.033198	0.321070
	H2811	H	0.344889	0.033542	0.310156
	Al2812	Al	0.305914	-0.001320	0.347229
	Al2813	Al	0.305899	0.249514	0.347328
	Al2814	Al	0.249947	0.249344	0.249866
	Al2815	Al	0.249938	-0.000454	0.249939
	O2816	O	0.316380	0.039886	0.362184
	O2817	O	0.305881	0.124278	0.335957
	O2818	O	0.306285	0.374431	0.358518
	O2819	O	0.364069	0.040990	0.361445
	O2820	O	0.296513	0.040093	0.362040
	O2821	O	0.252939	0.040403	0.394817
	O2822	O	0.296537	0.208086	0.362058
	O2823	O	0.296320	0.290275	0.330416
	O2824	O	0.258712	0.290267	0.268581
	O2825	O	0.316364	0.208220	0.362268
	O2826	O	0.315411	0.290000	0.332349
	O2827	O	0.358945	0.290523	0.299491
	O2828	O	0.252944	0.208573	0.394881
	O2829	O	0.296347	0.458110	0.330350
	O2830	O	0.258689	0.458275	0.268649
	O2831	O	0.358901	0.458738	0.299347
	O2832	O	0.315395	0.458070	0.332253
	O2833	O	0.364068	0.209154	0.361520
	O2834	O	0.243349	0.374338	0.398641
	O2835	O	0.368792	0.124232	0.296066
	C2836	C	0.344897	0.214338	0.361418
	C2837	C	0.349770	0.124752	0.360883
	C2838	C	0.344934	0.034855	0.361303
	C2839	C	0.335509	0.034699	0.362349
	C2840	C	0.330653	0.124330	0.362974
	C2841	C	0.335486	0.214227	0.362505
	C2842	C	0.320416	0.124085	0.362616
	C2843	C	0.360009	0.125058	0.361284
	C2844	C	0.292860	0.124269	0.364833
	C2845	C	0.283539	0.124624	0.371949
	C2846	C	0.279040	0.214479	0.374983
	C2847	C	0.270286	0.214527	0.381169
	C2848	C	0.265826	0.124752	0.384448
	C2849	C	0.270292	0.034972	0.381218
	C2850	C	0.279037	0.034925	0.375026
	C2851	C	0.256556	0.124646	0.391882
	C2852	C	0.293082	0.374084	0.325390
	C2853	C	0.284944	0.374366	0.312295
	C2854	C	0.281093	0.463131	0.306010
	C2855	C	0.273625	0.463254	0.293667
	C2856	C	0.269793	0.374364	0.287390
	C2857	C	0.273597	0.285461	0.293746
	C2858	C	0.281070	0.285508	0.306074
	C2859	C	0.261851	0.374184	0.273759
	C2860	C	0.319016	0.374181	0.329384
	C2861	C	0.328274	0.374300	0.321875
	C2862	C	0.332763	0.284780	0.318745
	C2863	C	0.341495	0.284855	0.312574
	C2864	C	0.345951	0.374561	0.309381
	C2865	C	0.341467	0.464083	0.312537
	C2866	C	0.332731	0.463965	0.318677
	C2867	C	0.355280	0.374597	0.302227
	H2868	H	0.344937	0.215608	0.310315
	H2869	H	0.329418	0.214943	0.321291
	H2870	H	0.348532	0.284456	0.361013
	H2871	H	0.331845	0.284088	0.362977
	H2872	H	0.306060	0.124673	0.323842
	H2873	H	0.307151	0.373977	0.370626
	H2874	H	0.243333	0.374279	0.386410
	H2875	H	0.369786	0.124162	0.308175
	H2876	H	0.283927	0.216745	0.310885
	H2877	H	0.270718	0.216600	0.288918
	H2878	H	0.266922	0.284542	0.383565
	H2879	H	0.282424	0.284180	0.372526
	H2880	H	0.270784	0.531992	0.288736
	H2881	H	0.284008	0.531939	0.310752
	H2882	H	0.282397	-0.034904	0.372636
	H2883	H	0.266907	-0.035096	0.383709
	H2884	H	0.331860	-0.035183	0.362700
	H2885	H	0.348584	-0.035032	0.360831
	H2886	H	0.329355	0.533609	0.321154
	H2887	H	0.344857	0.533707	0.310177
	Al2888	Al	0.312527	-0.500235	0.437492
	Al2889	Al	0.312520	-0.250373	0.437588
	Al2890	Al	0.243452	-0.251270	0.409903
	Al2891	Al	0.243453	-0.500252	0.409897
	O2892	O	0.323409	-0.459092	0.450946
	O2893	O	0.311757	-0.374991	0.426134
	O2894	O	0.313297	-0.125308	0.448947
	O2895	O	0.371171	-0.458798	0.450076
	O2896	O	0.303461	-0.459223	0.453570
	O2897	O	0.259036	-0.458961	0.483908
	O2898	O	0.303481	-0.291248	0.453574
	O2899	O	0.301583	-0.209861	0.424226
	O2900	O	0.253901	-0.210234	0.424888
	O2901	O	0.323446	-0.290956	0.450989
	O2902	O	0.321574	-0.209186	0.421510
	O2903	O	0.365920	-0.209146	0.390922
	O2904	O	0.259018	-0.290637	0.483819
	O2905	O	0.301620	-0.041437	0.424023
	O2906	O	0.253854	-0.041582	0.424910
	O2907	O	0.365926	-0.041059	0.391001
	O2908	O	0.321605	-0.041224	0.421577
	O2909	O	0.371143	-0.290542	0.450331
	O2910	O	0.249208	-0.124970	0.488617
	O2911	O	0.375825	-0.374860	0.386298
	C2912	C	0.352000	-0.285108	0.450133
	C2913	C	0.356864	-0.375042	0.449563
	C2914	C	0.352017	-0.465015	0.450062
	C2915	C	0.342582	-0.465141	0.451139
	C2916	C	0.337719	-0.375184	0.451669
	C2917	C	0.342565	-0.285296	0.451189
	C2918	C	0.327473	-0.375080	0.451235
	C2919	C	0.367107	-0.374793	0.449867
	C2920	C	0.299769	-0.375220	0.456322
	C2921	C	0.290308	-0.375326	0.463229
	C2922	C	0.285740	-0.285363	0.466022
	C2923	C	0.276812	-0.285007	0.471343
	C2924	C	0.272188	-0.374617	0.474125
	C2925	C	0.276775	-0.464538	0.471342
	C2926	C	0.285700	-0.464950	0.465994
	C2927	C	0.262739	-0.374911	0.481130
	C2928	C	0.297567	-0.125472	0.423809
	C2929	C	0.287311	-0.125275	0.423391
	C2930	C	0.282467	-0.035329	0.423953
	C2931	C	0.273038	-0.035352	0.425005
	C2932	C	0.268191	-0.125508	0.425463
	C2933	C	0.273050	-0.215365	0.424810
	C2934	C	0.282477	-0.215373	0.423735
	C2935	C	0.257924	-0.125760	0.425214
	C2936	C	0.325274	-0.125184	0.418759
	C2937	C	0.334700	-0.125216	0.411761
	C2938	C	0.339329	-0.214909	0.409030
	C2939	C	0.348231	-0.214751	0.403614
	C2940	C	0.352808	-0.124946	0.400711
	C2941	C	0.348189	-0.035282	0.403477
	C2942	C	0.339282	-0.035322	0.408888
	C2943	C	0.362232	-0.125051	0.393722
	H2944	H	0.351695	-0.284961	0.401631
	H2945	H	0.335941	-0.284787	0.411264
	H2946	H	0.355600	-0.215495	0.449645
	H2947	H	0.338899	-0.215387	0.451503
	H2948	H	0.310701	-0.375135	0.414001
	H2949	H	0.314439	-0.125266	0.460972
	H2950	H	0.248087	-0.125348	0.476615
	H2951	H	0.376980	-0.374760	0.398363
	H2952	H	0.286115	-0.285107	0.423225
	H2953	H	0.269423	-0.285573	0.425141
	H2954	H	0.273401	-0.214804	0.473399
	H2955	H	0.289194	-0.215331	0.463996
	H2956	H	0.269377	0.034730	0.425471
	H2957	H	0.286119	0.034503	0.423585
	H2958	H	0.289121	-0.535320	0.463923
	H2959	H	0.273345	-0.534836	0.473340
	H2960	H	0.338939	-0.535070	0.451414
	H2961	H	0.355662	-0.534867	0.449533
	H2962	H	0.335837	0.034788	0.410958
	H2963	H	0.351631	0.034992	0.401403
	Al2964	Al	0.312552	-0.000368	0.437492
	Al2965	Al	0.312505	0.249742	0.437448
	Al2966	Al	0.243455	0.248893	0.409936
	Al2967	Al	0.243424	-0.000061	0.409960
	O2968	O	0.323444	0.040562	0.450918
	O2969	O	0.311705	0.124410	0.426105
	O2970	O	0.313269	0.374821	0.448810
	O2971	O	0.371191	0.040953	0.450228
	O2972	O	0.303480	0.040974	0.453556
	O2973	O	0.258991	0.041042	0.483800
	O2974	O	0.303394	0.209089	0.453417
	O2975	O	0.301630	0.290883	0.424052
	O2976	O	0.253910	0.290335	0.425033
	O2977	O	0.323451	0.208943	0.450827
	O2978	O	0.321514	0.290670	0.421326
	O2979	O	0.365916	0.290846	0.390972
	O2980	O	0.259053	0.209242	0.483867
	O2981	O	0.301639	0.459024	0.424029
	O2982	O	0.253930	0.458707	0.424897
	O2983	O	0.365958	0.458856	0.391148
	O2984	O	0.321608	0.458793	0.421537
	O2985	O	0.371125	0.209227	0.450260
	O2986	O	0.249233	0.374955	0.488552
	O2987	O	0.375807	0.125140	0.386262
	C2988	C	0.352008	0.214685	0.450254
	C2989	C	0.356864	0.124809	0.449654
	C2990	C	0.352029	0.034864	0.450197
	C2991	C	0.342599	0.034603	0.451222
	C2992	C	0.337733	0.124515	0.451693
	C2993	C	0.342575	0.214503	0.451266
	C2994	C	0.327487	0.124758	0.451197
	C2995	C	0.367125	0.124884	0.449948
	C2996	C	0.299725	0.124959	0.456213
	C2997	C	0.290311	0.124682	0.463262
	C2998	C	0.285713	0.214377	0.466097
	C2999	C	0.276794	0.214648	0.471458
	C3000	C	0.272187	0.124932	0.474163
	C3001	C	0.276799	0.035184	0.471400
	C3002	C	0.285723	0.034953	0.466036
	C3003	C	0.262733	0.125035	0.481082
	C3004	C	0.297571	0.374914	0.423745
	C3005	C	0.287319	0.374738	0.423405
	C3006	C	0.282466	0.464458	0.423864
	C3007	C	0.273025	0.464314	0.424935
	C3008	C	0.268196	0.374532	0.425544
	C3009	C	0.273038	0.284719	0.425031
	C3010	C	0.282475	0.284816	0.423948
	C3011	C	0.257957	0.374476	0.425242
	C3012	C	0.325253	0.374557	0.418643
	C3013	C	0.334661	0.374666	0.411661
	C3014	C	0.339249	0.284947	0.408780
	C3015	C	0.348157	0.285197	0.403382
	C3016	C	0.352804	0.374872	0.400706
	C3017	C	0.348195	0.464575	0.403565
	C3018	C	0.339290	0.464493	0.408966
	C3019	C	0.362234	0.374916	0.393761
	H3020	H	0.351598	0.215283	0.401332
	H3021	H	0.335836	0.215043	0.410892
	H3022	H	0.355651	0.284777	0.449881
	H3023	H	0.338929	0.284360	0.451750
	H3024	H	0.310595	0.124413	0.414031
	H3025	H	0.314172	0.374975	0.460851
	H3026	H	0.248295	0.375392	0.476423
	H3027	H	0.377044	0.124683	0.398307
	H3028	H	0.286106	0.214718	0.423612
	H3029	H	0.269398	0.214866	0.425512
	H3030	H	0.273399	0.284869	0.473534
	H3031	H	0.289142	0.284485	0.464060
	H3032	H	0.269386	0.534380	0.425415
	H3033	H	0.286116	0.534699	0.423489
	H3034	H	0.289105	-0.035584	0.463930
	H3035	H	0.273351	-0.034841	0.473475
	H3036	H	0.338970	-0.035295	0.451666
	H3037	H	0.355681	-0.035210	0.449839
	H3038	H	0.335863	0.534289	0.411205
	H3039	H	0.351659	0.534690	0.401577
	Al3040	Al	0.319070	-0.499655	0.527664
	Al3041	Al	0.319105	-0.250334	0.527688
	Al3042	Al	0.250039	-0.250055	0.500007
	Al3043	Al	0.249984	-0.499837	0.499892
	O3044	O	0.328638	-0.459011	0.544570
	O3045	O	0.318679	-0.375000	0.516501
	O3046	O	0.319156	-0.125113	0.538971
	O3047	O	0.366271	-0.459232	0.606295
	O3048	O	0.309528	-0.459490	0.542621
	O3049	O	0.265970	-0.458317	0.575345
	O3050	O	0.309656	-0.291248	0.542951
	O3051	O	0.308664	-0.209493	0.512710
	O3052	O	0.260911	-0.208918	0.513423
	O3053	O	0.328607	-0.290952	0.544653
	O3054	O	0.328528	-0.209715	0.513034
	O3055	O	0.372135	-0.208783	0.480345
	O3056	O	0.266059	-0.290153	0.575647
	O3057	O	0.308631	-0.041133	0.512574
	O3058	O	0.260925	-0.040782	0.513271
	O3059	O	0.372128	-0.040704	0.480248
	O3060	O	0.328475	-0.041404	0.512834
	O3061	O	0.366294	-0.291219	0.606273
	O3062	O	0.256199	-0.125010	0.579131
	O3063	O	0.381703	-0.374988	0.476494
	C3064	C	0.351288	-0.286347	0.581367
	C3065	C	0.355156	-0.375041	0.587604
	C3066	C	0.351338	-0.463835	0.581231
	C3067	C	0.343857	-0.463867	0.568963
	C3068	C	0.339977	-0.374976	0.562770
	C3069	C	0.343819	-0.286181	0.569081
	C3070	C	0.331851	-0.375172	0.549655
	C3071	C	0.363134	-0.375256	0.601144
	C3072	C	0.305966	-0.375114	0.545662
	C3073	C	0.296708	-0.375099	0.553089
	C3074	C	0.292232	-0.285201	0.556260
	C3075	C	0.283485	-0.284839	0.562394
	C3076	C	0.278970	-0.374489	0.565492
	C3077	C	0.283457	-0.464481	0.562453
	C3078	C	0.292198	-0.464739	0.556293
	C3079	C	0.269675	-0.374390	0.572738
	C3080	C	0.304599	-0.125343	0.512327
	C3081	C	0.294366	-0.125406	0.512026
	C3082	C	0.289512	-0.035457	0.512574
	C3083	C	0.280074	-0.035502	0.513607
	C3084	C	0.275223	-0.125402	0.514090
	C3085	C	0.280077	-0.215415	0.513606
	C3086	C	0.289514	-0.215397	0.512545
	C3087	C	0.264964	-0.124895	0.513617
	C3088	C	0.332175	-0.125464	0.510181
	C3089	C	0.341494	-0.125370	0.503009
	C3090	C	0.346028	-0.214910	0.500024
	C3091	C	0.354779	-0.215059	0.493913
	C3092	C	0.359227	-0.125307	0.490671
	C3093	C	0.354706	-0.035803	0.493688
	C3094	C	0.345942	-0.035731	0.499790
	C3095	C	0.368518	-0.124814	0.483262
	H3096	H	0.358154	-0.284755	0.491555
	H3097	H	0.342692	-0.284735	0.502505
	H3098	H	0.354154	-0.217613	0.586224
	H3099	H	0.340886	-0.217062	0.564359
	H3100	H	0.317681	-0.374723	0.504435
	H3101	H	0.319159	-0.124604	0.551156
	H3102	H	0.255344	-0.124598	0.566984
	H3103	H	0.381740	-0.374719	0.488713
	H3104	H	0.293152	-0.285370	0.512078
	H3105	H	0.276432	-0.285622	0.513939
	H3106	H	0.280109	-0.214993	0.564813
	H3107	H	0.295615	-0.215490	0.553865
	H3108	H	0.276459	0.034709	0.513938
	H3109	H	0.293135	0.034649	0.512128
	H3110	H	0.295569	-0.534871	0.553876
	H3111	H	0.280043	-0.534179	0.564899
	H3112	H	0.340961	-0.532768	0.564159
	H3113	H	0.354239	-0.532834	0.586058
	H3114	H	0.342565	0.033845	0.502129
	H3115	H	0.358069	0.033708	0.491243
	Al3116	Al	0.319080	0.000209	0.527623
	Al3117	Al	0.319091	0.249524	0.527634
	Al3118	Al	0.249994	0.250210	0.499939
	Al3119	Al	0.250015	0.000236	0.499934
	O3120	O	0.328623	0.041178	0.544554
	O3121	O	0.318702	0.125040	0.516413
	O3122	O	0.319115	0.374983	0.538983
	O3123	O	0.366249	0.040957	0.606409
	O3124	O	0.309563	0.040508	0.542534
	O3125	O	0.266045	0.040311	0.575575
	O3126	O	0.309637	0.208610	0.542823
	O3127	O	0.308578	0.290278	0.512769
	O3128	O	0.260867	0.291091	0.513376
	O3129	O	0.328562	0.209285	0.544724
	O3130	O	0.328540	0.290722	0.512991
	O3131	O	0.372141	0.290788	0.480366
	O3132	O	0.265988	0.208526	0.575357
	O3133	O	0.308599	0.458671	0.512626
	O3134	O	0.260862	0.459323	0.513445
	O3135	O	0.372090	0.459088	0.480333
	O3136	O	0.328499	0.458930	0.512945
	O3137	O	0.366275	0.208948	0.606338
	O3138	O	0.256239	0.375079	0.578878
	O3139	O	0.381722	0.125383	0.476531
	C3140	C	0.351305	0.214034	0.581316
	C3141	C	0.355105	0.124965	0.587685
	C3142	C	0.351278	0.035962	0.581361
	C3143	C	0.343812	0.036062	0.569011
	C3144	C	0.339966	0.125158	0.562780
	C3145	C	0.343838	0.214034	0.568986
	C3146	C	0.331834	0.125243	0.549676
	C3147	C	0.363098	0.125104	0.601202
	C3148	C	0.305976	0.124619	0.545603
	C3149	C	0.296701	0.124553	0.553072
	C3150	C	0.292193	0.214094	0.556147
	C3151	C	0.283435	0.214226	0.562273
	C3152	C	0.278999	0.124509	0.565490
	C3153	C	0.283491	0.034860	0.562413
	C3154	C	0.292241	0.034841	0.556290
	C3155	C	0.269671	0.124388	0.572677
	C3156	C	0.304541	0.374544	0.512351
	C3157	C	0.294294	0.374771	0.511995
	C3158	C	0.289478	0.464773	0.512579
	C3159	C	0.280047	0.465012	0.513601
	C3160	C	0.275180	0.375268	0.514042
	C3161	C	0.280008	0.285283	0.513580
	C3162	C	0.289437	0.285028	0.512553
	C3163	C	0.264920	0.375186	0.513675
	C3164	C	0.332154	0.374866	0.510182
	C3165	C	0.341460	0.374673	0.502900
	C3166	C	0.346051	0.285003	0.500185
	C3167	C	0.354814	0.285261	0.494090
	C3168	C	0.359215	0.375076	0.490639
	C3169	C	0.354686	0.464735	0.493662
	C3170	C	0.345939	0.464395	0.499765
	C3171	C	0.368495	0.374843	0.483200
	H3172	H	0.358279	0.215651	0.491929
	H3173	H	0.342743	0.215618	0.502896
	H3174	H	0.354196	0.282965	0.586131
	H3175	H	0.340974	0.282852	0.564165
	H3176	H	0.317699	0.124927	0.504320
	H3177	H	0.318874	0.375301	0.551193
	H3178	H	0.255294	0.374769	0.566839
	H3179	H	0.381672	0.125522	0.488688
	H3180	H	0.293067	0.215025	0.512164
	H3181	H	0.276372	0.215384	0.514042
	H3182	H	0.280032	0.283672	0.564501
	H3183	H	0.295540	0.283893	0.553624
	H3184	H	0.276411	0.535103	0.514054
	H3185	H	0.293137	0.534559	0.512230
	H3186	H	0.295600	-0.035074	0.553851
	H3187	H	0.280116	-0.034901	0.564811
	H3188	H	0.340910	-0.033161	0.564228
	H3189	H	0.354148	-0.033144	0.586175
	H3190	H	0.342533	0.533556	0.502144
	H3191	H	0.358011	0.534519	0.491254
	Al3192	Al	0.312500	-0.500059	0.687689
	Al3193	Al	0.312517	-0.249853	0.687600
	Al3194	Al	0.256599	-0.249547	0.590286
	Al3195	Al	0.256582	-0.500415	0.590143
	O3196	O	0.321235	-0.459055	0.706330
	O3197	O	0.313047	-0.375080	0.676688
	O3198	O	0.312054	-0.124832	0.698595
	O3199	O	0.358947	-0.458932	0.767932
	O3200	O	0.302481	-0.459014	0.700699
	O3201	O	0.260025	-0.459092	0.736934
	O3202	O	0.302458	-0.290490	0.700728
	O3203	O	0.303802	-0.209163	0.668890
	O3204	O	0.266051	-0.209195	0.607482
	O3205	O	0.321251	-0.290719	0.706354
	O3206	O	0.322530	-0.209072	0.674415
	O3207	O	0.364942	-0.209531	0.638031
	O3208	O	0.260078	-0.290923	0.737105
	O3209	O	0.303859	-0.041056	0.668836
	O3210	O	0.266087	-0.041168	0.607286
	O3211	O	0.364974	-0.041264	0.638188
	O3212	O	0.322555	-0.040803	0.674467
	O3213	O	0.358912	-0.290925	0.768040
	O3214	O	0.250535	-0.124711	0.739250
	O3215	O	0.374532	-0.375280	0.635992
	C3216	C	0.343682	-0.286133	0.743584
	C3217	C	0.347519	-0.375135	0.749912
	C3218	C	0.343678	-0.464245	0.743705
	C3219	C	0.336192	-0.464438	0.731416
	C3220	C	0.332356	-0.375331	0.725103
	C3221	C	0.336197	-0.286247	0.731304
	C3222	C	0.324388	-0.375067	0.711548
	C3223	C	0.355690	-0.374785	0.762986
	C3224	C	0.298906	-0.374713	0.703747
	C3225	C	0.289837	-0.375068	0.711691
	C3226	C	0.285541	-0.286017	0.715421
	C3227	C	0.277053	-0.285905	0.722572
	C3228	C	0.272702	-0.374963	0.726074
	C3229	C	0.277001	-0.464187	0.722379
	C3230	C	0.285490	-0.464304	0.715208
	C3231	C	0.263625	-0.374947	0.734037
	C3232	C	0.300690	-0.124989	0.663654
	C3233	C	0.292699	-0.124879	0.650157
	C3234	C	0.288913	-0.035725	0.643751
	C3235	C	0.281423	-0.035638	0.631491
	C3236	C	0.277517	-0.124725	0.625354
	C3237	C	0.281304	-0.213686	0.631753
	C3238	C	0.288810	-0.213868	0.643983
	C3239	C	0.269327	-0.125246	0.612321
	C3240	C	0.326099	-0.125146	0.671442
	C3241	C	0.335169	-0.125233	0.663475
	C3242	C	0.339456	-0.214562	0.659726
	C3243	C	0.347943	-0.214458	0.652549
	C3244	C	0.352300	-0.125270	0.649028
	C3245	C	0.348023	-0.035921	0.652826
	C3246	C	0.339532	-0.035970	0.660012
	C3247	C	0.361393	-0.125425	0.641095
	H3248	H	0.351213	-0.283558	0.649590
	H3249	H	0.336128	-0.283532	0.662516
	H3250	H	0.346576	-0.216985	0.748302
	H3251	H	0.333349	-0.217085	0.726407
	H3252	H	0.313539	-0.375708	0.664646
	H3253	H	0.311687	-0.124785	0.710593
	H3254	H	0.250949	-0.125005	0.727127
	H3255	H	0.374023	-0.375240	0.647997
	H3256	H	0.291625	-0.282882	0.648918
	H3257	H	0.278346	-0.282780	0.627099
	H3258	H	0.273770	-0.217064	0.725474
	H3259	H	0.288885	-0.217151	0.712789
	H3260	H	0.278576	0.033192	0.626597
	H3261	H	0.291875	0.033261	0.648441
	H3262	H	0.288782	-0.533250	0.712357
	H3263	H	0.273666	-0.532964	0.725143
	H3264	H	0.333307	-0.533343	0.726626
	H3265	H	0.346577	-0.533462	0.748503
	H3266	H	0.336272	0.032849	0.663044
	H3267	H	0.351365	0.033195	0.650101
	Al3268	Al	0.312503	-0.000111	0.687559
	Al3269	Al	0.312516	0.249776	0.687647
	Al3270	Al	0.256612	0.250429	0.590142
	Al3271	Al	0.256611	-0.000247	0.590290
	O3272	O	0.321195	0.041104	0.706304
	O3273	O	0.313049	0.125180	0.676536
	O3274	O	0.312013	0.374923	0.698644
	O3275	O	0.358919	0.040621	0.768027
	O3276	O	0.302397	0.040621	0.700504
	O3277	O	0.260092	0.040753	0.737065
	O3278	O	0.302492	0.209044	0.700719
	O3279	O	0.303777	0.291058	0.669015
	O3280	O	0.266090	0.291153	0.607181
	O3281	O	0.321258	0.209204	0.706325
	O3282	O	0.322503	0.291304	0.674458
	O3283	O	0.364928	0.290685	0.638061
	O3284	O	0.260055	0.209095	0.737082
	O3285	O	0.303772	0.459077	0.668943
	O3286	O	0.266146	0.458936	0.607056
	O3287	O	0.364989	0.458967	0.638157
	O3288	O	0.322587	0.459566	0.674572
	O3289	O	0.358878	0.208626	0.768054
	O3290	O	0.250547	0.375454	0.739167
	O3291	O	0.374486	0.124732	0.635999
	C3292	C	0.343682	0.213447	0.743621
	C3293	C	0.347515	0.124397	0.749900
	C3294	C	0.343661	0.035380	0.743654
	C3295	C	0.336182	0.035551	0.731333
	C3296	C	0.332357	0.124630	0.725029
	C3297	C	0.336201	0.213546	0.731313
	C3298	C	0.324370	0.125085	0.711536
	C3299	C	0.355651	0.124439	0.763021
	C3300	C	0.298881	0.124964	0.703573
	C3301	C	0.289825	0.124919	0.711577
	C3302	C	0.285568	0.214217	0.715429
	C3303	C	0.277065	0.214427	0.722620
	C3304	C	0.272697	0.125275	0.726046
	C3305	C	0.276966	0.036060	0.722221
	C3306	C	0.285456	0.036018	0.715032
	C3307	C	0.263618	0.124808	0.734003
	C3308	C	0.300628	0.374785	0.663799
	C3309	C	0.292642	0.374886	0.650276
	C3310	C	0.288907	0.463871	0.643737
	C3311	C	0.281419	0.463983	0.631421
	C3312	C	0.277488	0.375008	0.625300
	C3313	C	0.281253	0.285998	0.631778
	C3314	C	0.288721	0.285930	0.644113
	C3315	C	0.269358	0.375227	0.612184
	C3316	C	0.326103	0.375390	0.671535
	C3317	C	0.335177	0.375161	0.663537
	C3318	C	0.339467	0.285943	0.659832
	C3319	C	0.347947	0.285866	0.652642
	C3320	C	0.352317	0.375022	0.649060
	C3321	C	0.348011	0.464401	0.652767
	C3322	C	0.339535	0.464449	0.659986
	C3323	C	0.361392	0.374931	0.641142
	H3324	H	0.351232	0.216879	0.649802
	H3325	H	0.336140	0.217347	0.662704
	H3326	H	0.346589	0.282504	0.748385
	H3327	H	0.333339	0.282234	0.726491
	H3328	H	0.313603	0.124812	0.664393
	H3329	H	0.311540	0.375094	0.710724
	H3330	H	0.251100	0.375159	0.727065
	H3331	H	0.373983	0.124233	0.648023
	H3332	H	0.291542	0.216684	0.649110
	H3333	H	0.278287	0.216841	0.627136
	H3334	H	0.273788	0.283379	0.725592
	H3335	H	0.288901	0.282837	0.712644
	H3336	H	0.278605	0.533375	0.626480
	H3337	H	0.291856	0.532876	0.648391
	H3338	H	0.288681	-0.032985	0.711927
	H3339	H	0.273618	-0.032867	0.724844
	H3340	H	0.333289	-0.033629	0.726529
	H3341	H	0.346559	-0.033754	0.748397
	H3342	H	0.336255	0.533408	0.662915
	H3343	H	0.351361	0.533044	0.650111
	Al3344	Al	0.305905	-0.500296	0.847595
	Al3345	Al	0.305954	-0.249420	0.847501
	Al3346	Al	0.250014	-0.249905	0.750169
	Al3347	Al	0.250036	-0.499811	0.750165
	O3348	O	0.316386	-0.459177	0.862498
	O3349	O	0.305827	-0.374884	0.836267
	O3350	O	0.306297	-0.125052	0.858681
	O3351	O	0.364093	-0.458876	0.861621
	O3352	O	0.296521	-0.458402	0.862336
	O3353	O	0.252927	-0.458981	0.895032
	O3354	O	0.296443	-0.290105	0.862126
	O3355	O	0.296478	-0.208954	0.830415
	O3356	O	0.258669	-0.208901	0.769093
	O3357	O	0.316385	-0.290660	0.862603
	O3358	O	0.315402	-0.209152	0.832438
	O3359	O	0.359026	-0.208945	0.799787
	O3360	O	0.252964	-0.290736	0.895047
	O3361	O	0.296437	-0.040817	0.830401
	O3362	O	0.258676	-0.040904	0.769004
	O3363	O	0.359021	-0.040985	0.799737
	O3364	O	0.315390	-0.041057	0.832290
	O3365	O	0.364078	-0.290776	0.861756
	O3366	O	0.243393	-0.125004	0.898836
	O3367	O	0.368814	-0.375289	0.796247
	C3368	C	0.344945	-0.284906	0.861519
	C3369	C	0.349786	-0.374888	0.861060
	C3370	C	0.344940	-0.464798	0.861473
	C3371	C	0.335520	-0.464787	0.862508
	C3372	C	0.330677	-0.374925	0.863119
	C3373	C	0.335523	-0.284960	0.862570
	C3374	C	0.320424	-0.374863	0.862808
	C3375	C	0.360045	-0.374830	0.861385
	C3376	C	0.292827	-0.374268	0.865015
	C3377	C	0.283535	-0.374590	0.872222
	C3378	C	0.278985	-0.285142	0.875137
	C3379	C	0.270243	-0.285127	0.881282
	C3380	C	0.265815	-0.374931	0.884652
	C3381	C	0.270362	-0.464426	0.881636
	C3382	C	0.279104	-0.464309	0.875541
	C3383	C	0.256561	-0.374936	0.892077
	C3384	C	0.293204	-0.125078	0.825416
	C3385	C	0.285048	-0.124975	0.812398
	C3386	C	0.281197	-0.035706	0.806219
	C3387	C	0.273674	-0.035740	0.793962
	C3388	C	0.269821	-0.124864	0.787710
	C3389	C	0.273639	-0.213973	0.794012
	C3390	C	0.281153	-0.213936	0.806250
	C3391	C	0.261820	-0.124873	0.774261
	C3392	C	0.319014	-0.125248	0.829371
	C3393	C	0.328296	-0.125242	0.821986
	C3394	C	0.332772	-0.214737	0.818748
	C3395	C	0.341540	-0.214747	0.812692
	C3396	C	0.346048	-0.125264	0.809691
	C3397	C	0.341544	-0.035802	0.812805
	C3398	C	0.332782	-0.035690	0.818874
	C3399	C	0.355357	-0.125120	0.802504
	H3400	H	0.344893	-0.284386	0.810183
	H3401	H	0.329400	-0.284482	0.821039
	H3402	H	0.348585	-0.215086	0.861122
	H3403	H	0.331874	-0.215093	0.863030
	H3404	H	0.305798	-0.374622	0.824062
	H3405	H	0.307096	-0.124820	0.870817
	H3406	H	0.243507	-0.125091	0.886638
	H3407	H	0.370023	-0.375080	0.808387
	H3408	H	0.284019	-0.283249	0.811033
	H3409	H	0.270752	-0.283130	0.789230
	H3410	H	0.266822	-0.215509	0.883546
	H3411	H	0.282365	-0.215724	0.872534
	H3412	H	0.270772	0.033469	0.789186
	H3413	H	0.284102	0.033287	0.811017
	H3414	H	0.282515	-0.533814	0.873326
	H3415	H	0.267003	-0.534315	0.884149
	H3416	H	0.331867	-0.534860	0.862968
	H3417	H	0.348592	-0.534747	0.861059
	H3418	H	0.329378	0.033975	0.821171
	H3419	H	0.344932	0.033539	0.810381
	Al3420	Al	0.305928	-0.000538	0.847425
	Al3421	Al	0.305931	0.250495	0.847728
	Al3422	Al	0.250053	0.250393	0.750161
	Al3423	Al	0.250065	0.000230	0.750194
	O3424	O	0.316412	0.040319	0.862496
	O3425	O	0.305847	0.125377	0.836257
	O3426	O	0.306315	0.375153	0.858848
	O3427	O	0.364102	0.040594	0.861836
	O3428	O	0.296468	0.040780	0.862102
	O3429	O	0.252931	0.040400	0.894979
	O3430	O	0.296552	0.209023	0.862431
	O3431	O	0.296381	0.291454	0.830684
	O3432	O	0.258843	0.290811	0.768802
	O3433	O	0.316383	0.208757	0.862717
	O3434	O	0.315429	0.290360	0.832679
	O3435	O	0.358945	0.290475	0.799678
	O3436	O	0.252915	0.208734	0.894974
	O3437	O	0.296369	0.459376	0.830711
	O3438	O	0.258759	0.458980	0.768839
	O3439	O	0.358905	0.458673	0.799589
	O3440	O	0.315348	0.458684	0.832499
	O3441	O	0.364104	0.208736	0.861568
	O3442	O	0.243385	0.375109	0.898782
	O3443	O	0.368868	0.124683	0.796187
	C3444	C	0.344924	0.214740	0.861370
	C3445	C	0.349798	0.124817	0.861019
	C3446	C	0.344966	0.034924	0.861481
	C3447	C	0.335537	0.034834	0.862574
	C3448	C	0.330679	0.124637	0.863159
	C3449	C	0.335498	0.214602	0.862463
	C3450	C	0.320426	0.124631	0.862771
	C3451	C	0.360049	0.124635	0.861409
	C3452	C	0.292866	0.124895	0.865074
	C3453	C	0.283556	0.124474	0.872306
	C3454	C	0.279074	0.214094	0.875489
	C3455	C	0.270322	0.213954	0.881572
	C3456	C	0.265823	0.124459	0.884653
	C3457	C	0.270244	0.034741	0.881196
	C3458	C	0.279003	0.034876	0.875094
	C3459	C	0.256558	0.124488	0.892058
	C3460	C	0.293165	0.375331	0.825654
	C3461	C	0.285045	0.375465	0.812465
	C3462	C	0.281207	0.464345	0.806218
	C3463	C	0.273745	0.464253	0.793827
	C3464	C	0.269952	0.375208	0.787463
	C3465	C	0.273753	0.286264	0.793830
	C3466	C	0.281220	0.286464	0.806220
	C3467	C	0.261949	0.375108	0.773978
	C3468	C	0.318997	0.374734	0.829593
	C3469	C	0.328250	0.374806	0.822107
	C3470	C	0.332747	0.285098	0.818950
	C3471	C	0.341500	0.284853	0.812802
	C3472	C	0.345958	0.374770	0.809610
	C3473	C	0.341460	0.464490	0.812700
	C3474	C	0.332717	0.464539	0.818867
	C3475	C	0.355264	0.374738	0.802399
	H3476	H	0.344905	0.215104	0.810413
	H3477	H	0.329402	0.215157	0.821424
	H3478	H	0.348563	0.284762	0.861013
	H3479	H	0.331836	0.284531	0.862940
	H3480	H	0.306105	0.126128	0.824091
	H3481	H	0.307111	0.375626	0.871011
	H3482	H	0.243332	0.374962	0.886568
	H3483	H	0.369917	0.124618	0.808304
	H3484	H	0.284104	0.217415	0.811060
	H3485	H	0.270908	0.217136	0.789022
	H3486	H	0.266964	0.283578	0.884065
	H3487	H	0.282469	0.283599	0.873241
	H3488	H	0.270876	0.533100	0.789054
	H3489	H	0.284028	0.533389	0.811030
	H3490	H	0.282377	-0.034495	0.872488
	H3491	H	0.266832	-0.034712	0.883444
	H3492	H	0.331917	-0.035320	0.863124
	H3493	H	0.348626	-0.034866	0.861207
	H3494	H	0.329347	0.534398	0.821245
	H3495	H	0.344831	0.534143	0.810252
	Al3496	Al	0.312533	-0.499986	0.937685
	Al3497	Al	0.312531	-0.249987	0.937564
	Al3498	Al	0.243444	-0.250380	0.910062
	Al3499	Al	0.243475	-0.499413	0.910148
	O3500	O	0.323408	-0.458878	0.951206
	O3501	O	0.311756	-0.374845	0.926289
	O3502	O	0.313345	-0.124996	0.948905
	O3503	O	0.371112	-0.459607	0.950338
	O3504	O	0.303488	-0.458846	0.953592
	O3505	O	0.259122	-0.458823	0.984004
	O3506	O	0.303513	-0.290653	0.953738
	O3507	O	0.301582	-0.209299	0.924188
	O3508	O	0.253879	-0.209313	0.925124
	O3509	O	0.323430	-0.290710	0.951005
	O3510	O	0.321557	-0.208874	0.921565
	O3511	O	0.365978	-0.208890	0.891300
	O3512	O	0.259096	-0.290845	0.983927
	O3513	O	0.301573	-0.040917	0.924123
	O3514	O	0.253867	-0.040857	0.925171
	O3515	O	0.365979	-0.040619	0.891312
	O3516	O	0.321563	-0.040758	0.921580
	O3517	O	0.371150	-0.291149	0.950143
	O3518	O	0.249210	-0.124881	0.988541
	O3519	O	0.375751	-0.374752	0.886460
	C3520	C	0.352000	-0.285057	0.950175
	C3521	C	0.356847	-0.375099	0.949674
	C3522	C	0.351993	-0.464948	0.950260
	C3523	C	0.342569	-0.464809	0.951367
	C3524	C	0.337719	-0.374812	0.951830
	C3525	C	0.342578	-0.284959	0.951268
	C3526	C	0.327477	-0.374842	0.951385
	C3527	C	0.367086	-0.375224	0.949958
	C3528	C	0.299821	-0.374781	0.956463
	C3529	C	0.290389	-0.374976	0.963334
	C3530	C	0.285763	-0.285023	0.966082
	C3531	C	0.276847	-0.285060	0.971439
	C3532	C	0.272249	-0.374846	0.974332
	C3533	C	0.276881	-0.464611	0.971626
	C3534	C	0.285795	-0.464623	0.966240
	C3535	C	0.262783	-0.374876	0.981201
	C3536	C	0.297540	-0.125056	0.923916
	C3537	C	0.287285	-0.124959	0.923526
	C3538	C	0.282444	-0.034934	0.924009
	C3539	C	0.273011	-0.034957	0.925087
	C3540	C	0.268168	-0.124825	0.925671
	C3541	C	0.273003	-0.214635	0.925134
	C3542	C	0.282436	-0.214775	0.924059
	C3543	C	0.257923	-0.124999	0.925395
	C3544	C	0.325247	-0.124848	0.918766
	C3545	C	0.334716	-0.125031	0.911852
	C3546	C	0.339332	-0.214599	0.909135
	C3547	C	0.348276	-0.214711	0.903819
	C3548	C	0.352829	-0.124899	0.900884
	C3549	C	0.348235	-0.035284	0.903640
	C3550	C	0.339290	-0.035137	0.908960
	C3551	C	0.362283	-0.124739	0.894015
	H3552	H	0.351703	-0.284785	0.901844
	H3553	H	0.335899	-0.284906	0.911186
	H3554	H	0.355643	-0.214985	0.949702
	H3555	H	0.338919	-0.214876	0.951709
	H3556	H	0.310665	-0.375481	0.914167
	H3557	H	0.314499	-0.124818	0.961031
	H3558	H	0.248112	-0.124681	0.976455
	H3559	H	0.376826	-0.374843	0.898593
	H3560	H	0.286074	-0.284876	0.923673
	H3561	H	0.269361	-0.284312	0.925568
	H3562	H	0.273351	-0.215210	0.973365
	H3563	H	0.289176	-0.214981	0.963933
	H3564	H	0.269371	0.034850	0.925515
	H3565	H	0.286100	0.035064	0.923581
	H3566	H	0.289247	-0.534646	0.964228
	H3567	H	0.273462	-0.534823	0.973707
	H3568	H	0.338927	-0.534699	0.951918
	H3569	H	0.355644	-0.534759	0.949842
	H3570	H	0.335858	0.035136	0.910872
	H3571	H	0.351658	0.035105	0.901522
	Al3572	Al	0.312493	0.000096	0.937503
	Al3573	Al	0.312526	0.249991	0.937503
	Al3574	Al	0.243488	0.249849	0.910128
	Al3575	Al	0.243430	0.000591	0.910106
	O3576	O	0.323408	0.040944	0.951079
	O3577	O	0.311762	0.125189	0.926160
	O3578	O	0.313321	0.375150	0.948892
	O3579	O	0.371144	0.040764	0.950361
	O3580	O	0.303515	0.041438	0.953616
	O3581	O	0.259118	0.041348	0.983956
	O3582	O	0.303497	0.209408	0.953602
	O3583	O	0.301655	0.291163	0.923974
	O3584	O	0.253977	0.290924	0.925100
	O3585	O	0.323430	0.209409	0.950986
	O3586	O	0.321533	0.291282	0.921383
	O3587	O	0.365965	0.291233	0.891168
	O3588	O	0.259132	0.209462	0.984037
	O3589	O	0.301683	0.459201	0.924126
	O3590	O	0.253928	0.459190	0.925103
	O3591	O	0.366016	0.459156	0.891305
	O3592	O	0.321608	0.459444	0.921638
	O3593	O	0.371161	0.209081	0.950228
	O3594	O	0.249216	0.375103	0.988539
	O3595	O	0.375710	0.125545	0.886464
	C3596	C	0.351988	0.215103	0.950399
	C3597	C	0.356842	0.125211	0.949809
	C3598	C	0.351981	0.035296	0.950246
	C3599	C	0.342544	0.035241	0.951287
	C3600	C	0.337700	0.125066	0.951896
	C3601	C	0.342549	0.215055	0.951402
	C3602	C	0.327458	0.124994	0.951312
	C3603	C	0.367091	0.124970	0.950149
	C3604	C	0.299831	0.125349	0.956450
	C3605	C	0.290400	0.125608	0.963401
	C3606	C	0.285790	0.215499	0.966169
	C3607	C	0.276869	0.215717	0.971508
	C3608	C	0.272261	0.125789	0.974375
	C3609	C	0.276876	0.035933	0.971582
	C3610	C	0.285787	0.035881	0.966242
	C3611	C	0.262812	0.125502	0.981257
	C3612	C	0.297621	0.375171	0.923769
	C3613	C	0.287359	0.375472	0.923366
	C3614	C	0.282515	0.465315	0.923947
	C3615	C	0.273091	0.465268	0.925039
	C3616	C	0.268238	0.375378	0.925584
	C3617	C	0.273075	0.285619	0.924916
	C3618	C	0.282491	0.285623	0.923788
	C3619	C	0.257990	0.375196	0.925372
	C3620	C	0.325264	0.375283	0.918778
	C3621	C	0.334711	0.375328	0.911873
	C3622	C	0.339330	0.285520	0.909154
	C3623	C	0.348260	0.285548	0.903836
	C3624	C	0.352841	0.375358	0.900968
	C3625	C	0.348236	0.465110	0.903745
	C3626	C	0.339305	0.465095	0.909059
	C3627	C	0.362297	0.375113	0.893999
	H3628	H	0.351730	0.215409	0.901869
	H3629	H	0.335918	0.215160	0.911205
	H3630	H	0.355637	0.285031	0.949951
	H3631	H	0.338906	0.285073	0.951694
	H3632	H	0.310809	0.125272	0.914047
	H3633	H	0.314377	0.375070	0.961091
	H3634	H	0.248066	0.374450	0.976545
	H3635	H	0.376465	0.125586	0.898641
	H3636	H	0.286142	0.215688	0.923249
	H3637	H	0.269444	0.215501	0.925262
	H3638	H	0.273429	0.285655	0.973490
	H3639	H	0.289278	0.285479	0.964083
	H3640	H	0.269449	0.535121	0.925478
	H3641	H	0.286156	0.535430	0.923540
	H3642	H	0.289236	-0.034095	0.964233
	H3643	H	0.273418	-0.034352	0.973666
	H3644	H	0.338867	-0.034853	0.951459
	H3645	H	0.355606	-0.034534	0.949664
	H3646	H	0.335869	0.535290	0.911083
	H3647	H	0.351652	0.535238	0.901736
	Al3648	Al	0.437552	-0.500220	0.062534
	Al3649	Al	0.437576	-0.250258	0.062623
	Al3650	Al	0.381628	-0.249380	-0.034837
	Al3651	Al	0.381634	-0.500349	-0.034748
	O3652	O	0.446251	-0.459224	0.081274
	O3653	O	0.438051	-0.374939	0.051569
	O3654	O	0.437036	-0.125407	0.073588
	O3655	O	0.483904	-0.459391	0.143032
	O3656	O	0.427458	-0.459377	0.075466
	O3657	O	0.385059	-0.459578	0.111993
	O3658	O	0.427477	-0.291088	0.075655
	O3659	O	0.428783	-0.209242	0.043957
	O3660	O	0.391074	-0.208814	-0.017744
	O3661	O	0.446256	-0.290988	0.081323
	O3662	O	0.447597	-0.209173	0.049535
	O3663	O	0.489933	-0.209242	0.013160
	O3664	O	0.385048	-0.291489	0.111853
	O3665	O	0.428786	-0.041351	0.044041
	O3666	O	0.391155	-0.041025	-0.017850
	O3667	O	0.489959	-0.040837	0.013150
	O3668	O	0.447592	-0.040858	0.049529
	O3669	O	0.483913	-0.291298	0.143110
	O3670	O	0.375555	-0.125146	0.113950
	O3671	O	0.499502	-0.375182	0.011104
	C3672	C	0.468669	-0.286371	0.118642
	C3673	C	0.472514	-0.375404	0.124919
	C3674	C	0.468633	-0.464422	0.118681
	C3675	C	0.461163	-0.464077	0.106351
	C3676	C	0.457350	-0.375106	0.100055
	C3677	C	0.461208	-0.286237	0.106319
	C3678	C	0.449404	-0.375317	0.086457
	C3679	C	0.480650	-0.375160	0.138061
	C3680	C	0.423913	-0.375181	0.078572
	C3681	C	0.414859	-0.375700	0.086592
	C3682	C	0.410561	-0.286368	0.090287
	C3683	C	0.402072	-0.286584	0.097526
	C3684	C	0.397776	-0.375822	0.101117
	C3685	C	0.402098	-0.465006	0.097490
	C3686	C	0.410574	-0.464994	0.090250
	C3687	C	0.388644	-0.375658	0.108975
	C3688	C	0.425641	-0.125264	0.038815
	C3689	C	0.417627	-0.125128	0.025336
	C3690	C	0.413803	-0.036397	0.019025
	C3691	C	0.406324	-0.036491	0.006705
	C3692	C	0.402484	-0.125306	0.000451
	C3693	C	0.406330	-0.214093	0.006740
	C3694	C	0.413792	-0.214029	0.019058
	C3695	C	0.394333	-0.124973	-0.012755
	C3696	C	0.451184	-0.124958	0.046606
	C3697	C	0.460245	-0.124980	0.038632
	C3698	C	0.464568	-0.214152	0.035034
	C3699	C	0.473037	-0.214247	0.027767
	C3700	C	0.477344	-0.124822	0.024114
	C3701	C	0.473035	-0.035631	0.027803
	C3702	C	0.464554	-0.035605	0.035005
	C3703	C	0.486405	-0.125105	0.016182
	H3704	H	0.476335	-0.283017	0.024936
	H3705	H	0.461321	-0.282976	0.038059
	H3706	H	0.471576	-0.217349	0.123440
	H3707	H	0.458370	-0.217309	0.101448
	H3708	H	0.438357	-0.375460	0.039412
	H3709	H	0.436419	-0.125238	0.085546
	H3710	H	0.375996	-0.125466	0.101976
	H3711	H	0.499028	-0.375347	0.023166
	H3712	H	0.416690	-0.282817	0.023855
	H3713	H	0.403459	-0.283102	0.001935
	H3714	H	0.398786	-0.217555	0.100426
	H3715	H	0.413864	-0.217182	0.087416
	H3716	H	0.403457	0.032228	0.001826
	H3717	H	0.416700	0.032632	0.023843
	H3718	H	0.413845	-0.534179	0.087398
	H3719	H	0.398816	-0.534319	0.100376
	H3720	H	0.458269	-0.532726	0.101481
	H3721	H	0.471498	-0.533421	0.123442
	H3722	H	0.461294	0.033066	0.038010
	H3723	H	0.476333	0.033337	0.025021
	Al3724	Al	0.437555	-0.000422	0.062645
	Al3725	Al	0.437576	0.249913	0.062633
	Al3726	Al	0.381613	0.250547	-0.034837
	Al3727	Al	0.381651	-0.000366	-0.034752
	O3728	O	0.446205	0.040519	0.081336
	O3729	O	0.438007	0.124805	0.051576
	O3730	O	0.437086	0.375037	0.073581
	O3731	O	0.483929	0.040549	0.143064
	O3732	O	0.427508	0.040798	0.075779
	O3733	O	0.385079	0.041024	0.111886
	O3734	O	0.427482	0.209283	0.075647
	O3735	O	0.428816	0.290690	0.044011
	O3736	O	0.391124	0.291541	-0.017740
	O3737	O	0.446279	0.208683	0.081255
	O3738	O	0.447600	0.290695	0.049487
	O3739	O	0.490050	0.290741	0.013326
	O3740	O	0.385051	0.209312	0.111963
	O3741	O	0.428823	0.458695	0.043890
	O3742	O	0.391170	0.459372	-0.017784
	O3743	O	0.490021	0.458932	0.013343
	O3744	O	0.447590	0.458939	0.049472
	O3745	O	0.483903	0.208457	0.143133
	O3746	O	0.375510	0.374899	0.114036
	O3747	O	0.499518	0.124838	0.011083
	C3748	C	0.468671	0.213358	0.118721
	C3749	C	0.472556	0.124476	0.124892
	C3750	C	0.468678	0.035627	0.118676
	C3751	C	0.461195	0.035778	0.106375
	C3752	C	0.457360	0.124590	0.100078
	C3753	C	0.461183	0.213461	0.106406
	C3754	C	0.449384	0.124697	0.086503
	C3755	C	0.480680	0.124454	0.138136
	C3756	C	0.423931	0.125005	0.078668
	C3757	C	0.414870	0.125037	0.086670
	C3758	C	0.410558	0.214405	0.090321
	C3759	C	0.402079	0.214623	0.097538
	C3760	C	0.397720	0.125529	0.101079
	C3761	C	0.402041	0.036092	0.097500
	C3762	C	0.410541	0.035768	0.090314
	C3763	C	0.388629	0.125310	0.108931
	C3764	C	0.425644	0.374527	0.038795
	C3765	C	0.417652	0.374685	0.025318
	C3766	C	0.413832	0.463401	0.019040
	C3767	C	0.406358	0.463368	0.006697
	C3768	C	0.402490	0.374740	0.000497
	C3769	C	0.406347	0.285941	0.006670
	C3770	C	0.413825	0.285996	0.019018
	C3771	C	0.394368	0.375359	-0.012679
	C3772	C	0.451160	0.374862	0.046480
	C3773	C	0.460240	0.374596	0.038584
	C3774	C	0.464564	0.285425	0.034926
	C3775	C	0.473052	0.285581	0.027782
	C3776	C	0.477392	0.374737	0.024265
	C3777	C	0.473053	0.463912	0.027856
	C3778	C	0.464548	0.463793	0.034983
	C3779	C	0.486451	0.374835	0.016307
	H3780	H	0.476331	0.216915	0.024859
	H3781	H	0.461258	0.216719	0.037676
	H3782	H	0.471531	0.282230	0.123639
	H3783	H	0.458272	0.282545	0.101667
	H3784	H	0.438418	0.124867	0.039462
	H3785	H	0.436576	0.374814	0.085683
	H3786	H	0.375965	0.375325	0.101964
	H3787	H	0.499038	0.124906	0.023167
	H3788	H	0.416715	0.217109	0.023823
	H3789	H	0.403467	0.216991	0.001904
	H3790	H	0.398798	0.283779	0.100369
	H3791	H	0.413844	0.283305	0.087389
	H3792	H	0.403459	0.532361	0.001927
	H3793	H	0.416686	0.532198	0.023819
	H3794	H	0.413812	-0.033130	0.087403
	H3795	H	0.398709	-0.032487	0.100344
	H3796	H	0.458286	-0.033038	0.101628
	H3797	H	0.471504	-0.033148	0.123569
	H3798	H	0.461229	0.532664	0.037785
	H3799	H	0.476339	0.532577	0.024932
	Al3800	Al	0.430920	-0.500715	0.222314
	Al3801	Al	0.430939	-0.250111	0.222491
	Al3802	Al	0.375046	-0.250110	0.125053
	Al3803	Al	0.374983	-0.500204	0.125099
	O3804	O	0.441421	-0.460075	0.237289
	O3805	O	0.430899	-0.375057	0.211091
	O3806	O	0.431330	-0.125121	0.233649
	O3807	O	0.489110	-0.459477	0.236502
	O3808	O	0.421482	-0.459459	0.237054
	O3809	O	0.377843	-0.459548	0.269646
	O3810	O	0.421448	-0.291054	0.237049
	O3811	O	0.421418	-0.209119	0.205430
	O3812	O	0.383779	-0.209180	0.143686
	O3813	O	0.441385	-0.291786	0.237468
	O3814	O	0.440453	-0.209809	0.207449
	O3815	O	0.483987	-0.209430	0.174642
	O3816	O	0.377886	-0.291181	0.269713
	O3817	O	0.421327	-0.041390	0.205629
	O3818	O	0.383694	-0.041424	0.143783
	O3819	O	0.483977	-0.041266	0.174648
	O3820	O	0.440342	-0.041627	0.207219
	O3821	O	0.489129	-0.291104	0.236485
	O3822	O	0.368283	-0.125654	0.273489
	O3823	O	0.493836	-0.375601	0.171250
	C3824	C	0.469981	-0.285484	0.236291
	C3825	C	0.474826	-0.375450	0.235805
	C3826	C	0.469981	-0.465336	0.236316
	C3827	C	0.460556	-0.465391	0.237434
	C3828	C	0.455715	-0.375420	0.237975
	C3829	C	0.460561	-0.285397	0.237411
	C3830	C	0.445474	-0.375803	0.237674
	C3831	C	0.485065	-0.375199	0.236232
	C3832	C	0.417790	-0.375502	0.239818
	C3833	C	0.408486	-0.375338	0.247020
	C3834	C	0.403975	-0.285569	0.250028
	C3835	C	0.395218	-0.285615	0.256152
	C3836	C	0.390764	-0.375451	0.259401
	C3837	C	0.395281	-0.465164	0.256405
	C3838	C	0.404024	-0.465025	0.250267
	C3839	C	0.381488	-0.375361	0.266799
	C3840	C	0.418130	-0.125269	0.200533
	C3841	C	0.409996	-0.125074	0.187432
	C3842	C	0.406088	-0.035927	0.181295
	C3843	C	0.398608	-0.035841	0.168954
	C3844	C	0.394811	-0.124949	0.162534
	C3845	C	0.398693	-0.213982	0.168736
	C3846	C	0.406167	-0.214086	0.181094
	C3847	C	0.386869	-0.125255	0.148977
	C3848	C	0.444017	-0.125590	0.204407
	C3849	C	0.453296	-0.125534	0.197014
	C3850	C	0.457755	-0.215203	0.193775
	C3851	C	0.466496	-0.214983	0.187598
	C3852	C	0.470982	-0.125323	0.184518
	C3853	C	0.466521	-0.035671	0.187700
	C3854	C	0.457773	-0.035853	0.193880
	C3855	C	0.480334	-0.125431	0.177379
	H3856	H	0.469897	-0.284683	0.185192
	H3857	H	0.454422	-0.285178	0.196237
	H3858	H	0.473625	-0.215626	0.235831
	H3859	H	0.456939	-0.215243	0.237828
	H3860	H	0.430987	-0.374930	0.198864
	H3861	H	0.432229	-0.124990	0.245752
	H3862	H	0.368288	-0.124892	0.261273
	H3863	H	0.494797	-0.375775	0.183365
	H3864	H	0.409076	-0.283369	0.185806
	H3865	H	0.395846	-0.283307	0.163895
	H3866	H	0.391804	-0.215887	0.258524
	H3867	H	0.407356	-0.215876	0.247593
	H3868	H	0.395698	0.032995	0.164257
	H3869	H	0.408938	0.033305	0.186139
	H3870	H	0.407457	-0.534644	0.248011
	H3871	H	0.391918	-0.534719	0.258885
	H3872	H	0.456904	-0.535569	0.237925
	H3873	H	0.473620	-0.535423	0.235931
	H3874	H	0.454411	0.033695	0.196423
	H3875	H	0.469904	0.034168	0.185373
	Al3876	Al	0.430893	-0.000631	0.222355
	Al3877	Al	0.430904	0.250078	0.222355
	Al3878	Al	0.374998	0.249607	0.124997
	Al3879	Al	0.375022	-0.000217	0.125001
	O3880	O	0.441411	0.040546	0.237331
	O3881	O	0.430891	0.124662	0.211028
	O3882	O	0.431239	0.374740	0.233526
	O3883	O	0.489082	0.040795	0.236633
	O3884	O	0.421474	0.040705	0.237135
	O3885	O	0.377874	0.040386	0.269759
	O3886	O	0.421478	0.208754	0.236931
	O3887	O	0.421370	0.290660	0.205388
	O3888	O	0.383683	0.290709	0.143740
	O3889	O	0.441330	0.208806	0.237431
	O3890	O	0.440413	0.290579	0.207330
	O3891	O	0.484065	0.290378	0.174941
	O3892	O	0.377889	0.208410	0.269785
	O3893	O	0.421341	0.458714	0.205431
	O3894	O	0.383675	0.458901	0.143902
	O3895	O	0.484055	0.458519	0.174760
	O3896	O	0.440379	0.458884	0.207191
	O3897	O	0.489102	0.209073	0.236573
	O3898	O	0.368363	0.374229	0.273533
	O3899	O	0.493882	0.124205	0.171235
	C3900	C	0.469955	0.215189	0.236348
	C3901	C	0.474798	0.125271	0.235854
	C3902	C	0.469951	0.035448	0.236419
	C3903	C	0.460533	0.035370	0.237538
	C3904	C	0.455681	0.125180	0.238031
	C3905	C	0.460516	0.215065	0.237467
	C3906	C	0.445430	0.124869	0.237686
	C3907	C	0.485049	0.124969	0.236301
	C3908	C	0.417791	0.124791	0.239758
	C3909	C	0.408488	0.124821	0.246955
	C3910	C	0.403962	0.214173	0.249914
	C3911	C	0.395226	0.214142	0.256061
	C3912	C	0.390767	0.124574	0.259345
	C3913	C	0.395271	0.035045	0.256289
	C3914	C	0.404020	0.035164	0.250177
	C3915	C	0.381489	0.124504	0.266836
	C3916	C	0.418128	0.374786	0.200395
	C3917	C	0.409983	0.374881	0.187270
	C3918	C	0.406087	0.463829	0.181111
	C3919	C	0.398616	0.463832	0.168828
	C3920	C	0.394810	0.374833	0.162473
	C3921	C	0.398665	0.285813	0.168722
	C3922	C	0.406125	0.285984	0.181023
	C3923	C	0.386857	0.374660	0.148978
	C3924	C	0.444024	0.374596	0.204374
	C3925	C	0.453287	0.374672	0.196963
	C3926	C	0.457777	0.285002	0.193793
	C3927	C	0.466535	0.284871	0.187719
	C3928	C	0.471060	0.374609	0.184675
	C3929	C	0.466582	0.464350	0.187865
	C3930	C	0.457822	0.464422	0.193914
	C3931	C	0.480390	0.374533	0.177560
	H3932	H	0.469922	0.215237	0.185319
	H3933	H	0.454380	0.215417	0.196207
	H3934	H	0.473571	0.285192	0.235886
	H3935	H	0.456850	0.284879	0.237868
	H3936	H	0.431081	0.124814	0.198826
	H3937	H	0.432036	0.374970	0.245609
	H3938	H	0.368407	0.374594	0.261286
	H3939	H	0.494826	0.124033	0.183331
	H3940	H	0.409044	0.217124	0.185757
	H3941	H	0.395815	0.217102	0.163826
	H3942	H	0.391818	0.283743	0.258391
	H3943	H	0.407303	0.284023	0.247313
	H3944	H	0.395716	0.532715	0.164026
	H3945	H	0.408957	0.532712	0.185959
	H3946	H	0.407419	-0.034133	0.247813
	H3947	H	0.391915	-0.034449	0.258745
	H3948	H	0.456913	-0.034898	0.238004
	H3949	H	0.473588	-0.034684	0.235971
	H3950	H	0.454474	0.534161	0.196415
	H3951	H	0.470027	0.533530	0.185538
	Al3952	Al	0.437539	-0.500203	0.312490
	Al3953	Al	0.437531	-0.249956	0.312439
	Al3954	Al	0.368378	-0.251094	0.284775
	Al3955	Al	0.368421	-0.500121	0.284775
	O3956	O	0.448416	-0.458857	0.325886
	O3957	O	0.436702	-0.374911	0.301130
	O3958	O	0.438281	-0.125026	0.323754
	O3959	O	0.496066	-0.459601	0.325088
	O3960	O	0.428475	-0.459099	0.328599
	O3961	O	0.384006	-0.458782	0.358760
	O3962	O	0.428509	-0.291089	0.328654
	O3963	O	0.426576	-0.208988	0.299122
	O3964	O	0.378839	-0.209462	0.299699
	O3965	O	0.448414	-0.290666	0.325822
	O3966	O	0.446519	-0.208253	0.296309
	O3967	O	0.490931	-0.209052	0.265994
	O3968	O	0.384043	-0.290620	0.358893
	O3969	O	0.426557	-0.040732	0.299131
	O3970	O	0.378837	-0.041062	0.299840
	O3971	O	0.490966	-0.041159	0.266034
	O3972	O	0.446546	-0.040431	0.296373
	O3973	O	0.496106	-0.291016	0.325021
	O3974	O	0.374194	-0.124731	0.363505
	O3975	O	0.500795	-0.375173	0.261314
	C3976	C	0.476996	-0.284819	0.325064
	C3977	C	0.481813	-0.374954	0.324527
	C3978	C	0.476963	-0.464810	0.325039
	C3979	C	0.467533	-0.464696	0.326148
	C3980	C	0.462719	-0.374645	0.326653
	C3981	C	0.467564	-0.284655	0.326191
	C3982	C	0.452453	-0.374833	0.326224
	C3983	C	0.492049	-0.375130	0.324773
	C3984	C	0.424800	-0.374995	0.331312
	C3985	C	0.415334	-0.374576	0.338291
	C3986	C	0.410725	-0.284817	0.341014
	C3987	C	0.401798	-0.285140	0.346397
	C3988	C	0.397192	-0.374863	0.349141
	C3989	C	0.401801	-0.464524	0.346463
	C3990	C	0.410724	-0.464331	0.341123
	C3991	C	0.387734	-0.374736	0.356111
	C3992	C	0.422505	-0.124891	0.298797
	C3993	C	0.412266	-0.125001	0.298313
	C3994	C	0.407417	-0.035114	0.298974
	C3995	C	0.397994	-0.035074	0.300022
	C3996	C	0.393138	-0.125058	0.300354
	C3997	C	0.397997	-0.214781	0.299654
	C3998	C	0.407415	-0.214860	0.298635
	C3999	C	0.382890	-0.125193	0.300070
	C4000	C	0.450233	-0.124219	0.293607
	C4001	C	0.459654	-0.124243	0.286664
	C4002	C	0.464250	-0.213997	0.283825
	C4003	C	0.473179	-0.214432	0.278490
	C4004	C	0.477836	-0.124729	0.275758
	C4005	C	0.473247	-0.034839	0.278606
	C4006	C	0.464321	-0.034613	0.283946
	C4007	C	0.487230	-0.125117	0.268717
	H4008	H	0.476598	-0.284629	0.276441
	H4009	H	0.460800	-0.283893	0.285988
	H4010	H	0.480622	-0.214958	0.324557
	H4011	H	0.463911	-0.214485	0.326600
	H4012	H	0.435621	-0.375265	0.289096
	H4013	H	0.439257	-0.125190	0.335831
	H4014	H	0.372978	-0.125460	0.351406
	H4015	H	0.501796	-0.374968	0.273378
	H4016	H	0.411056	-0.284909	0.298094
	H4017	H	0.394351	-0.284854	0.299938
	H4018	H	0.398378	-0.214830	0.348458
	H4019	H	0.414125	-0.214691	0.338897
	H4020	H	0.394348	0.034775	0.300631
	H4021	H	0.411061	0.034845	0.298708
	H4022	H	0.414170	-0.534505	0.339119
	H4023	H	0.398386	-0.534797	0.348540
	H4024	H	0.463871	-0.534877	0.326493
	H4025	H	0.480577	-0.534740	0.324529
	H4026	H	0.460937	0.035546	0.286210
	H4027	H	0.476741	0.035037	0.276687
	Al4028	Al	0.437501	-0.000002	0.312505
	Al4029	Al	0.437526	0.249825	0.312377
	Al4030	Al	0.368393	0.248985	0.284847
	Al4031	Al	0.368393	-0.000318	0.284852
	O4032	O	0.448422	0.041186	0.325903
	O4033	O	0.436661	0.124960	0.301125
	O4034	O	0.438294	0.374922	0.323790
	O4035	O	0.496123	0.040687	0.325125
	O4036	O	0.428441	0.040648	0.328537
	O4037	O	0.384050	0.041056	0.358915
	O4038	O	0.428442	0.208769	0.328419
	O4039	O	0.426581	0.290914	0.299019
	O4040	O	0.378848	0.290677	0.299892
	O4041	O	0.448445	0.209160	0.325745
	O4042	O	0.446561	0.291564	0.296375
	O4043	O	0.490961	0.291020	0.266050
	O4044	O	0.384041	0.209218	0.358907
	O4045	O	0.426598	0.459067	0.299142
	O4046	O	0.378892	0.458834	0.299827
	O4047	O	0.490963	0.458784	0.266048
	O4048	O	0.446591	0.459391	0.296419
	O4049	O	0.496168	0.208961	0.325053
	O4050	O	0.374170	0.374978	0.363638
	O4051	O	0.500783	0.125096	0.261389
	C4052	C	0.477041	0.214871	0.325066
	C4053	C	0.481863	0.125044	0.324564
	C4054	C	0.477020	0.035235	0.325171
	C4055	C	0.467592	0.035304	0.326229
	C4056	C	0.462743	0.125081	0.326627
	C4057	C	0.467600	0.214925	0.326100
	C4058	C	0.452491	0.125092	0.326109
	C4059	C	0.492090	0.125046	0.324810
	C4060	C	0.424740	0.124667	0.331250
	C4061	C	0.415336	0.124920	0.338266
	C4062	C	0.410732	0.214907	0.340966
	C4063	C	0.401809	0.214803	0.346388
	C4064	C	0.397190	0.125073	0.349270
	C4065	C	0.401811	0.035067	0.346613
	C4066	C	0.410744	0.035068	0.341266
	C4067	C	0.387738	0.125091	0.356166
	C4068	C	0.422543	0.374969	0.298741
	C4069	C	0.412291	0.374997	0.298331
	C4070	C	0.407434	0.464693	0.298981
	C4071	C	0.398007	0.464588	0.300039
	C4072	C	0.393164	0.374665	0.300408
	C4073	C	0.398031	0.284941	0.299782
	C4074	C	0.407465	0.285000	0.298715
	C4075	C	0.382911	0.374496	0.300130
	C4076	C	0.450257	0.375259	0.293633
	C4077	C	0.459686	0.375221	0.286698
	C4078	C	0.464284	0.285317	0.283873
	C4079	C	0.473211	0.285424	0.278525
	C4080	C	0.477819	0.375049	0.275711
	C4081	C	0.473231	0.464947	0.278604
	C4082	C	0.464302	0.464912	0.283972
	C4083	C	0.487275	0.375112	0.268794
	H4084	H	0.476642	0.215394	0.276465
	H4085	H	0.460828	0.215129	0.285888
	H4086	H	0.480692	0.284796	0.324612
	H4087	H	0.463977	0.285036	0.326479
	H4088	H	0.435528	0.125241	0.289060
	H4089	H	0.439263	0.374530	0.335917
	H4090	H	0.372979	0.374689	0.351588
	H4091	H	0.501895	0.124704	0.273448
	H4092	H	0.411124	0.215038	0.298234
	H4093	H	0.394392	0.215019	0.300151
	H4094	H	0.398345	0.284851	0.348316
	H4095	H	0.414128	0.285080	0.338749
	H4096	H	0.394388	0.534453	0.300616
	H4097	H	0.411063	0.534818	0.298709
	H4098	H	0.414165	-0.035151	0.339231
	H4099	H	0.398379	-0.034902	0.348715
	H4100	H	0.463949	-0.034756	0.326710
	H4101	H	0.480642	-0.034854	0.324795
	H4102	H	0.460889	0.534936	0.286099
	H4103	H	0.476684	0.534947	0.276625
	Al4104	Al	0.444092	-0.499218	0.402671
	Al4105	Al	0.444109	-0.250333	0.402597
	Al4106	Al	0.374990	-0.250026	0.374891
	Al4107	Al	0.374998	-0.499935	0.374918
	O4108	O	0.453646	-0.458767	0.419564
	O4109	O	0.443764	-0.374870	0.391416
	O4110	O	0.444106	-0.124712	0.413947
	O4111	O	0.491206	-0.458798	0.481366
	O4112	O	0.434651	-0.458811	0.417756
	O4113	O	0.391049	-0.458959	0.450556
	O4114	O	0.434561	-0.290480	0.417595
	O4115	O	0.433593	-0.209031	0.387649
	O4116	O	0.385895	-0.209011	0.388336
	O4117	O	0.453597	-0.290688	0.419562
	O4118	O	0.453525	-0.208844	0.387935
	O4119	O	0.497036	-0.208948	0.354936
	O4120	O	0.391069	-0.290671	0.450626
	O4121	O	0.433600	-0.040681	0.387584
	O4122	O	0.385922	-0.040868	0.388217
	O4123	O	0.497177	-0.040781	0.355370
	O4124	O	0.453472	-0.040689	0.387916
	O4125	O	0.491251	-0.290495	0.481312
	O4126	O	0.381257	-0.124744	0.454034
	O4127	O	0.506663	-0.374672	0.351346
	C4128	C	0.476278	-0.285556	0.456376
	C4129	C	0.480123	-0.374646	0.462625
	C4130	C	0.476329	-0.463609	0.456222
	C4131	C	0.468857	-0.463693	0.443885
	C4132	C	0.464985	-0.374506	0.437709
	C4133	C	0.468806	-0.285580	0.444056
	C4134	C	0.456832	-0.374727	0.424579
	C4135	C	0.488095	-0.374506	0.476167
	C4136	C	0.430982	-0.374665	0.420629
	C4137	C	0.421708	-0.375092	0.428032
	C4138	C	0.417247	-0.285325	0.431253
	C4139	C	0.408513	-0.285329	0.437458
	C4140	C	0.404043	-0.374985	0.440613
	C4141	C	0.408510	-0.464901	0.437442
	C4142	C	0.417247	-0.464865	0.431261
	C4143	C	0.394736	-0.374937	0.447826
	C4144	C	0.429547	-0.124818	0.387309
	C4145	C	0.419315	-0.124736	0.387032
	C4146	C	0.414466	-0.034756	0.387628
	C4147	C	0.405041	-0.034932	0.388691
	C4148	C	0.400194	-0.125035	0.389141
	C4149	C	0.405062	-0.214834	0.388661
	C4150	C	0.414493	-0.214710	0.387661
	C4151	C	0.389935	-0.125048	0.388540
	C4152	C	0.457180	-0.124599	0.385189
	C4153	C	0.466485	-0.124562	0.378063
	C4154	C	0.470972	-0.214129	0.374888
	C4155	C	0.479724	-0.214421	0.368735
	C4156	C	0.484222	-0.124856	0.365577
	C4157	C	0.479743	-0.035225	0.368833
	C4158	C	0.470989	-0.035017	0.374985
	C4159	C	0.493477	-0.124794	0.358125
	H4160	H	0.483095	-0.284217	0.366358
	H4161	H	0.467601	-0.283640	0.377263
	H4162	H	0.479083	-0.216721	0.461277
	H4163	H	0.465889	-0.216746	0.439310
	H4164	H	0.442931	-0.375112	0.379317
	H4165	H	0.443965	-0.124348	0.426086
	H4166	H	0.380385	-0.124833	0.441915
	H4167	H	0.506645	-0.374713	0.363516
	H4168	H	0.418177	-0.284617	0.387293
	H4169	H	0.401435	-0.284780	0.389093
	H4170	H	0.405130	-0.215896	0.439942
	H4171	H	0.420647	-0.215377	0.428875
	H4172	H	0.401380	0.035044	0.389114
	H4173	H	0.418097	0.035336	0.387183
	H4174	H	0.420629	-0.534468	0.428875
	H4175	H	0.405155	-0.534541	0.439922
	H4176	H	0.465999	-0.532590	0.439034
	H4177	H	0.479201	-0.532253	0.461047
	H4178	H	0.467623	0.034730	0.377468
	H4179	H	0.483160	0.034560	0.366549
	Al4180	Al	0.444079	0.000705	0.402649
	Al4181	Al	0.444072	0.249661	0.402613
	Al4182	Al	0.374972	0.250094	0.374934
	Al4183	Al	0.374971	0.000139	0.374892
	O4184	O	0.453604	0.041484	0.419632
	O4185	O	0.443705	0.125276	0.391447
	O4186	O	0.444163	0.375166	0.413948
	O4187	O	0.491246	0.041139	0.481371
	O4188	O	0.434601	0.041036	0.417676
	O4189	O	0.391063	0.041128	0.450587
	O4190	O	0.434561	0.209360	0.417640
	O4191	O	0.433613	0.291300	0.387686
	O4192	O	0.385904	0.291049	0.388379
	O4193	O	0.453581	0.209421	0.419651
	O4194	O	0.453565	0.290896	0.387968
	O4195	O	0.497098	0.291042	0.355112
	O4196	O	0.391108	0.209425	0.450680
	O4197	O	0.433632	0.459468	0.387750
	O4198	O	0.385934	0.459246	0.388240
	O4199	O	0.497155	0.459089	0.355237
	O4200	O	0.453559	0.459056	0.388019
	O4201	O	0.491229	0.209406	0.481319
	O4202	O	0.381228	0.375210	0.453941
	O4203	O	0.506659	0.125000	0.351431
	C4204	C	0.476284	0.214209	0.456387
	C4205	C	0.480122	0.125182	0.462635
	C4206	C	0.476328	0.036299	0.456214
	C4207	C	0.468860	0.036493	0.443935
	C4208	C	0.464970	0.125434	0.437795
	C4209	C	0.468801	0.214242	0.444117
	C4210	C	0.456830	0.125665	0.424643
	C4211	C	0.488093	0.125086	0.476107
	C4212	C	0.430956	0.125055	0.420497
	C4213	C	0.421707	0.124924	0.427980
	C4214	C	0.417282	0.214554	0.431341
	C4215	C	0.408562	0.214921	0.437578
	C4216	C	0.404033	0.125212	0.440541
	C4217	C	0.408490	0.035492	0.437303
	C4218	C	0.417221	0.035095	0.431098
	C4219	C	0.394722	0.125355	0.447762
	C4220	C	0.429566	0.375404	0.387382
	C4221	C	0.419330	0.375315	0.387083
	C4222	C	0.414484	0.465222	0.387606
	C4223	C	0.405047	0.465112	0.388633
	C4224	C	0.400210	0.375265	0.389146
	C4225	C	0.405065	0.285386	0.388735
	C4226	C	0.414503	0.285377	0.387681
	C4227	C	0.389957	0.375095	0.388614
	C4228	C	0.457207	0.374837	0.385202
	C4229	C	0.466531	0.375230	0.378057
	C4230	C	0.471034	0.285634	0.374997
	C4231	C	0.479782	0.285789	0.368837
	C4232	C	0.484236	0.375397	0.365573
	C4233	C	0.479741	0.465058	0.368721
	C4234	C	0.470987	0.464818	0.374874
	C4235	C	0.493501	0.375022	0.358104
	H4236	H	0.483153	0.216004	0.366446
	H4237	H	0.467665	0.215834	0.377420
	H4238	H	0.479186	0.282839	0.461207
	H4239	H	0.465889	0.283159	0.439366
	H4240	H	0.442758	0.125386	0.379394
	H4241	H	0.444167	0.375399	0.426128
	H4242	H	0.380223	0.375438	0.441799
	H4243	H	0.506664	0.125074	0.363635
	H4244	H	0.418137	0.215391	0.387333
	H4245	H	0.401431	0.215388	0.389227
	H4246	H	0.405194	0.284781	0.440019
	H4247	H	0.420677	0.284247	0.428957
	H4248	H	0.401412	0.535156	0.389120
	H4249	H	0.418119	0.535346	0.387189
	H4250	H	0.420539	-0.034681	0.428481
	H4251	H	0.405061	-0.033916	0.439595
	H4252	H	0.465981	-0.032399	0.439019
	H4253	H	0.479272	-0.032890	0.460871
	H4254	H	0.467588	0.534302	0.377238
	H4255	H	0.483109	0.534697	0.366283
	Al4256	Al	0.437515	-0.499867	0.562754
	Al4257	Al	0.437539	-0.250047	0.562745
	Al4258	Al	0.381601	-0.249203	0.465237
	Al4259	Al	0.381568	-0.500085	0.465220
	O4260	O	0.446259	-0.458923	0.581361
	O4261	O	0.437997	-0.374770	0.551684
	O4262	O	0.437033	-0.125039	0.573781
	O4263	O	0.483902	-0.458794	0.643140
	O4264	O	0.427474	-0.459094	0.575804
	O4265	O	0.385047	-0.459465	0.611961
	O4266	O	0.427533	-0.290814	0.575912
	O4267	O	0.428789	-0.209197	0.544049
	O4268	O	0.391187	-0.209023	0.482154
	O4269	O	0.446251	-0.290952	0.581391
	O4270	O	0.447594	-0.208903	0.549713
	O4271	O	0.489905	-0.208740	0.513193
	O4272	O	0.385013	-0.291165	0.611902
	O4273	O	0.428770	-0.041207	0.544009
	O4274	O	0.391178	-0.041069	0.482182
	O4275	O	0.489860	-0.040669	0.513038
	O4276	O	0.447545	-0.040581	0.549626
	O4277	O	0.483886	-0.290881	0.643117
	O4278	O	0.375491	-0.125222	0.614045
	O4279	O	0.499444	-0.375260	0.511082
	C4280	C	0.468694	-0.286165	0.618695
	C4281	C	0.472552	-0.374966	0.624954
	C4282	C	0.468722	-0.463935	0.618667
	C4283	C	0.461250	-0.464111	0.606350
	C4284	C	0.457428	-0.375144	0.600025
	C4285	C	0.461231	-0.286344	0.606392
	C4286	C	0.449428	-0.374982	0.586585
	C4287	C	0.480688	-0.375192	0.638043
	C4288	C	0.423915	-0.374889	0.578777
	C4289	C	0.414832	-0.374772	0.586666
	C4290	C	0.410498	-0.285542	0.590246
	C4291	C	0.402004	-0.285600	0.597397
	C4292	C	0.397686	-0.374883	0.601033
	C4293	C	0.402030	-0.464172	0.597470
	C4294	C	0.410521	-0.464074	0.590305
	C4295	C	0.388589	-0.375187	0.608896
	C4296	C	0.425644	-0.125318	0.538832
	C4297	C	0.417646	-0.125452	0.525318
	C4298	C	0.413849	-0.036731	0.518968
	C4299	C	0.406384	-0.036587	0.506642
	C4300	C	0.402536	-0.125455	0.500382
	C4301	C	0.406408	-0.214100	0.506552
	C4302	C	0.413866	-0.214213	0.518904
	C4303	C	0.394422	-0.125068	0.487169
	C4304	C	0.451123	-0.124697	0.546672
	C4305	C	0.460184	-0.124672	0.538638
	C4306	C	0.464511	-0.214009	0.535106
	C4307	C	0.472981	-0.213990	0.527864
	C4308	C	0.477266	-0.124702	0.524111
	C4309	C	0.472910	-0.035592	0.527529
	C4310	C	0.464443	-0.035476	0.534759
	C4311	C	0.486322	-0.124835	0.516111
	H4312	H	0.476298	-0.282891	0.525085
	H4313	H	0.461243	-0.282916	0.538118
	H4314	H	0.471584	-0.217493	0.623451
	H4315	H	0.458302	-0.217475	0.601611
	H4316	H	0.438499	-0.375053	0.539604
	H4317	H	0.436623	-0.125163	0.585905
	H4318	H	0.375869	-0.125241	0.601982
	H4319	H	0.499084	-0.375266	0.523130
	H4320	H	0.416792	-0.282941	0.523575
	H4321	H	0.403587	-0.282918	0.501635
	H4322	H	0.398662	-0.216463	0.600139
	H4323	H	0.413768	-0.216371	0.587358
	H4324	H	0.403555	0.032148	0.501771
	H4325	H	0.416755	0.032146	0.523701
	H4326	H	0.413834	-0.533150	0.587510
	H4327	H	0.398733	-0.533286	0.600284
	H4328	H	0.458375	-0.532915	0.601510
	H4329	H	0.471640	-0.532709	0.623437
	H4330	H	0.461101	0.033293	0.537389
	H4331	H	0.476140	0.033068	0.524428
	Al4332	Al	0.437513	0.000025	0.562763
	Al4333	Al	0.437520	0.249812	0.562717
	Al4334	Al	0.381603	0.250851	0.465259
	Al4335	Al	0.381647	-0.000064	0.465271
	O4336	O	0.446250	0.040882	0.581405
	O4337	O	0.437982	0.124709	0.551741
	O4338	O	0.436951	0.374987	0.573739
	O4339	O	0.483896	0.040945	0.643133
	O4340	O	0.427464	0.040908	0.575758
	O4341	O	0.385035	0.040588	0.611935
	O4342	O	0.427446	0.209230	0.575683
	O4343	O	0.428791	0.290691	0.543931
	O4344	O	0.391122	0.290982	0.482285
	O4345	O	0.446236	0.208980	0.581493
	O4346	O	0.447567	0.290701	0.549751
	O4347	O	0.489883	0.290753	0.513068
	O4348	O	0.385012	0.208970	0.611952
	O4349	O	0.428802	0.458840	0.544095
	O4350	O	0.391112	0.458956	0.482161
	O4351	O	0.489900	0.458907	0.513082
	O4352	O	0.447502	0.459225	0.549511
	O4353	O	0.483925	0.208715	0.643000
	O4354	O	0.375489	0.374682	0.614035
	O4355	O	0.499365	0.125223	0.511061
	C4356	C	0.468671	0.213156	0.618767
	C4357	C	0.472550	0.124447	0.624935
	C4358	C	0.468717	0.035812	0.618623
	C4359	C	0.461246	0.036181	0.606331
	C4360	C	0.457401	0.124758	0.600058
	C4361	C	0.461183	0.213413	0.606488
	C4362	C	0.449408	0.124919	0.586628
	C4363	C	0.480679	0.124815	0.638060
	C4364	C	0.423901	0.125047	0.578727
	C4365	C	0.414822	0.125026	0.586656
	C4366	C	0.410486	0.214280	0.590212
	C4367	C	0.401986	0.214361	0.597356
	C4368	C	0.397670	0.124966	0.601002
	C4369	C	0.401979	0.035652	0.597307
	C4370	C	0.410489	0.035672	0.590208
	C4371	C	0.388586	0.124684	0.608959
	C4372	C	0.425651	0.374915	0.538830
	C4373	C	0.417700	0.375275	0.525195
	C4374	C	0.413818	0.464276	0.519052
	C4375	C	0.406351	0.464456	0.506730
	C4376	C	0.402549	0.375713	0.500335
	C4377	C	0.406442	0.286969	0.506470
	C4378	C	0.413917	0.286617	0.518787
	C4379	C	0.394373	0.375038	0.487193
	C4380	C	0.451080	0.374841	0.546613
	C4381	C	0.460150	0.374803	0.538601
	C4382	C	0.464536	0.285640	0.535191
	C4383	C	0.473000	0.285741	0.527969
	C4384	C	0.477262	0.374953	0.524087
	C4385	C	0.472886	0.464086	0.527474
	C4386	C	0.464406	0.464043	0.534698
	C4387	C	0.486319	0.374857	0.516065
	H4388	H	0.476292	0.216917	0.525214
	H4389	H	0.461317	0.216691	0.538347
	H4390	H	0.471530	0.281837	0.623741
	H4391	H	0.458269	0.282569	0.601781
	H4392	H	0.438414	0.124897	0.539684
	H4393	H	0.436286	0.375364	0.585734
	H4394	H	0.375854	0.374473	0.602006
	H4395	H	0.498807	0.125894	0.523087
	H4396	H	0.416779	0.217580	0.523623
	H4397	H	0.403583	0.218142	0.501569
	H4398	H	0.398706	0.283295	0.600209
	H4399	H	0.413775	0.283330	0.587396
	H4400	H	0.403427	0.533361	0.502055
	H4401	H	0.416621	0.532827	0.524074
	H4402	H	0.413766	-0.033463	0.587225
	H4403	H	0.398661	-0.033306	0.600121
	H4404	H	0.458360	-0.032716	0.601509
	H4405	H	0.471607	-0.032743	0.623361
	H4406	H	0.461086	0.533047	0.537363
	H4407	H	0.476121	0.532525	0.524289
	Al4408	Al	0.430905	-0.501110	0.722353
	Al4409	Al	0.430931	-0.249755	0.722484
	Al4410	Al	0.375001	-0.250304	0.625035
	Al4411	Al	0.374995	-0.500480	0.625051
	O4412	O	0.441398	-0.459426	0.737338
	O4413	O	0.430826	-0.375211	0.711079
	O4414	O	0.431294	-0.125287	0.733756
	O4415	O	0.489103	-0.459164	0.736587
	O4416	O	0.421468	-0.459811	0.737053
	O4417	O	0.377897	-0.459641	0.770017
	O4418	O	0.421477	-0.291472	0.737135
	O4419	O	0.421346	-0.208999	0.705563
	O4420	O	0.383749	-0.209237	0.643729
	O4421	O	0.441428	-0.291046	0.737416
	O4422	O	0.440381	-0.209273	0.707344
	O4423	O	0.483986	-0.208881	0.674721
	O4424	O	0.377913	-0.291326	0.769955
	O4425	O	0.421414	-0.041106	0.705551
	O4426	O	0.383689	-0.041319	0.643740
	O4427	O	0.483939	-0.040739	0.674619
	O4428	O	0.440422	-0.041110	0.707474
	O4429	O	0.489119	-0.290853	0.736560
	O4430	O	0.368430	-0.125265	0.773675
	O4431	O	0.493825	-0.375512	0.671342
	C4432	C	0.469974	-0.285171	0.736355
	C4433	C	0.474819	-0.375117	0.735900
	C4434	C	0.469971	-0.465032	0.736455
	C4435	C	0.460549	-0.465096	0.737488
	C4436	C	0.455702	-0.375166	0.738003
	C4437	C	0.460551	-0.285243	0.737399
	C4438	C	0.445462	-0.375340	0.737632
	C4439	C	0.485072	-0.374992	0.736321
	C4440	C	0.417796	-0.375663	0.739846
	C4441	C	0.408488	-0.375644	0.746985
	C4442	C	0.403994	-0.285905	0.750004
	C4443	C	0.395242	-0.286110	0.756176
	C4444	C	0.390781	-0.375797	0.759481
	C4445	C	0.395252	-0.465406	0.756259
	C4446	C	0.403993	-0.465340	0.750062
	C4447	C	0.381524	-0.375529	0.767016
	C4448	C	0.418168	-0.125135	0.700460
	C4449	C	0.410017	-0.124817	0.687334
	C4450	C	0.406236	-0.035986	0.680903
	C4451	C	0.398755	-0.035997	0.668600
	C4452	C	0.394869	-0.124952	0.662415
	C4453	C	0.398636	-0.213799	0.668885
	C4454	C	0.406106	-0.213732	0.681229
	C4455	C	0.386885	-0.125259	0.648892
	C4456	C	0.444022	-0.125173	0.704446
	C4457	C	0.453260	-0.125173	0.696964
	C4458	C	0.457767	-0.214886	0.693835
	C4459	C	0.466513	-0.214861	0.687700
	C4460	C	0.470982	-0.125095	0.684583
	C4461	C	0.466456	-0.035480	0.687612
	C4462	C	0.457712	-0.035511	0.693754
	C4463	C	0.480287	-0.124950	0.677403
	H4464	H	0.469933	-0.284289	0.685311
	H4465	H	0.454438	-0.284890	0.696295
	H4466	H	0.473613	-0.214996	0.735945
	H4467	H	0.456894	-0.215559	0.737766
	H4468	H	0.430927	-0.375092	0.698877
	H4469	H	0.432157	-0.125216	0.745825
	H4470	H	0.368643	-0.125236	0.761441
	H4471	H	0.494741	-0.375892	0.683447
	H4472	H	0.408949	-0.282516	0.686006
	H4473	H	0.395716	-0.282841	0.664167
	H4474	H	0.391866	-0.216342	0.758508
	H4475	H	0.407375	-0.216330	0.747510
	H4476	H	0.395942	0.033091	0.663627
	H4477	H	0.409181	0.032926	0.685533
	H4478	H	0.407360	-0.535293	0.747606
	H4479	H	0.391873	-0.535110	0.758675
	H4480	H	0.456919	-0.535233	0.737930
	H4481	H	0.473642	-0.534707	0.736081
	H4482	H	0.454312	0.034144	0.696159
	H4483	H	0.469809	0.034166	0.685143
	Al4484	Al	0.430917	-0.000864	0.722578
	Al4485	Al	0.430909	0.249971	0.722380
	Al4486	Al	0.375010	0.249827	0.625080
	Al4487	Al	0.375002	-0.000282	0.625012
	O4488	O	0.441396	0.040620	0.737580
	O4489	O	0.430841	0.124082	0.711180
	O4490	O	0.431304	0.374490	0.733622
	O4491	O	0.489132	0.041181	0.736535
	O4492	O	0.421500	0.041202	0.737256
	O4493	O	0.377941	0.040903	0.769975
	O4494	O	0.421440	0.209183	0.737070
	O4495	O	0.421398	0.290481	0.705440
	O4496	O	0.383706	0.290172	0.643827
	O4497	O	0.441408	0.208907	0.737405
	O4498	O	0.440361	0.290484	0.707197
	O4499	O	0.483974	0.290068	0.674676
	O4500	O	0.377856	0.209037	0.769849
	O4501	O	0.421410	0.458457	0.705443
	O4502	O	0.383702	0.458422	0.643810
	O4503	O	0.484007	0.458164	0.674675
	O4504	O	0.440397	0.458594	0.707299
	O4505	O	0.489071	0.209544	0.736649
	O4506	O	0.368355	0.374749	0.773758
	O4507	O	0.493810	0.124734	0.671222
	C4508	C	0.469938	0.215044	0.736477
	C4509	C	0.474803	0.125273	0.735900
	C4510	C	0.469962	0.035207	0.736423
	C4511	C	0.460534	0.035150	0.737499
	C4512	C	0.455689	0.124866	0.738057
	C4513	C	0.460508	0.214953	0.737562
	C4514	C	0.445453	0.124784	0.737781
	C4515	C	0.485054	0.125195	0.736327
	C4516	C	0.417809	0.125248	0.739913
	C4517	C	0.408484	0.125304	0.747034
	C4518	C	0.403944	0.214869	0.749946
	C4519	C	0.395196	0.214927	0.756087
	C4520	C	0.390761	0.125320	0.759424
	C4521	C	0.395290	0.035661	0.756472
	C4522	C	0.404048	0.035667	0.750343
	C4523	C	0.381525	0.125098	0.766962
	C4524	C	0.418162	0.374512	0.700424
	C4525	C	0.410014	0.374640	0.687315
	C4526	C	0.406176	0.463620	0.681085
	C4527	C	0.398658	0.463627	0.668809
	C4528	C	0.394838	0.374625	0.662485
	C4529	C	0.398631	0.285768	0.668869
	C4530	C	0.406137	0.285621	0.681158
	C4531	C	0.386833	0.374407	0.649036
	C4532	C	0.444008	0.374386	0.704340
	C4533	C	0.453300	0.374650	0.697001
	C4534	C	0.457776	0.285054	0.693873
	C4535	C	0.466538	0.284907	0.687766
	C4536	C	0.471031	0.374563	0.684686
	C4537	C	0.466537	0.464331	0.687661
	C4538	C	0.457767	0.464337	0.693767
	C4539	C	0.480309	0.374275	0.677455
	H4540	H	0.469878	0.214915	0.685399
	H4541	H	0.454403	0.215202	0.696251
	H4542	H	0.473581	0.285001	0.735987
	H4543	H	0.456872	0.284998	0.737869
	H4544	H	0.430905	0.123915	0.698926
	H4545	H	0.432176	0.374592	0.745698
	H4546	H	0.368432	0.374790	0.761572
	H4547	H	0.494693	0.125250	0.683354
	H4548	H	0.408973	0.216483	0.686018
	H4549	H	0.395726	0.216501	0.664195
	H4550	H	0.391794	0.284538	0.758393
	H4551	H	0.407293	0.284441	0.747424
	H4552	H	0.395751	0.532776	0.664039
	H4553	H	0.409042	0.532648	0.685870
	H4554	H	0.407483	-0.033925	0.748137
	H4555	H	0.391977	-0.033994	0.759024
	H4556	H	0.456872	-0.034709	0.737834
	H4557	H	0.473586	-0.034919	0.735953
	H4558	H	0.454393	0.534143	0.695982
	H4559	H	0.469909	0.533895	0.685164
	Al4560	Al	0.437488	-0.500272	0.812650
	Al4561	Al	0.437470	-0.250072	0.812570
	Al4562	Al	0.368431	-0.250680	0.785101
	Al4563	Al	0.368375	-0.499418	0.785063
	O4564	O	0.448411	-0.459256	0.826023
	O4565	O	0.436723	-0.375060	0.801282
	O4566	O	0.438393	-0.124977	0.823970
	O4567	O	0.496093	-0.459056	0.825067
	O4568	O	0.428395	-0.458808	0.828661
	O4569	O	0.384000	-0.458518	0.858917
	O4570	O	0.428396	-0.290544	0.828567
	O4571	O	0.426601	-0.208992	0.799024
	O4572	O	0.378931	-0.209363	0.800039
	O4573	O	0.448364	-0.291085	0.826066
	O4574	O	0.446593	-0.208942	0.796667
	O4575	O	0.490951	-0.207940	0.766152
	O4576	O	0.384019	-0.290548	0.859100
	O4577	O	0.426604	-0.040809	0.799204
	O4578	O	0.378896	-0.041111	0.800084
	O4579	O	0.490886	-0.039967	0.766039
	O4580	O	0.446494	-0.041141	0.796464
	O4581	O	0.496106	-0.290549	0.824962
	O4582	O	0.374135	-0.124997	0.863825
	O4583	O	0.500748	-0.375050	0.761481
	C4584	C	0.476960	-0.284729	0.825153
	C4585	C	0.481811	-0.374639	0.824565
	C4586	C	0.476991	-0.464654	0.825053
	C4587	C	0.467554	-0.464567	0.826171
	C4588	C	0.462699	-0.374759	0.826752
	C4589	C	0.467526	-0.284742	0.826276
	C4590	C	0.452436	-0.375051	0.826318
	C4591	C	0.492050	-0.374691	0.824785
	C4592	C	0.424715	-0.374738	0.831385
	C4593	C	0.415287	-0.374442	0.838361
	C4594	C	0.410707	-0.284501	0.841228
	C4595	C	0.401794	-0.284553	0.846610
	C4596	C	0.397164	-0.374356	0.849361
	C4597	C	0.401740	-0.464209	0.846475
	C4598	C	0.410648	-0.464221	0.841102
	C4599	C	0.387696	-0.374389	0.856237
	C4600	C	0.422556	-0.124951	0.798851
	C4601	C	0.412324	-0.124743	0.798410
	C4602	C	0.407475	-0.034924	0.798948
	C4603	C	0.398035	-0.034997	0.800028
	C4604	C	0.393198	-0.124881	0.800573
	C4605	C	0.398053	-0.214561	0.800021
	C4606	C	0.407489	-0.214539	0.798951
	C4607	C	0.382971	-0.125139	0.800319
	C4608	C	0.450230	-0.124911	0.793768
	C4609	C	0.459663	-0.124653	0.786820
	C4610	C	0.464272	-0.214304	0.783969
	C4611	C	0.473196	-0.214162	0.778554
	C4612	C	0.477777	-0.124262	0.775716
	C4613	C	0.473185	-0.034593	0.778677
	C4614	C	0.464251	-0.034817	0.784028
	C4615	C	0.487236	-0.124008	0.768904
	H4616	H	0.476600	-0.284407	0.776459
	H4617	H	0.460802	-0.284428	0.785857
	H4618	H	0.480580	-0.214693	0.824669
	H4619	H	0.463896	-0.214718	0.826663
	H4620	H	0.435668	-0.375071	0.789170
	H4621	H	0.439531	-0.124939	0.836026
	H4622	H	0.372954	-0.124620	0.851707
	H4623	H	0.501792	-0.374800	0.773565
	H4624	H	0.411138	-0.284543	0.798493
	H4625	H	0.394424	-0.284508	0.800402
	H4626	H	0.398372	-0.214310	0.848776
	H4627	H	0.414183	-0.214218	0.839271
	H4628	H	0.394374	0.034945	0.800448
	H4629	H	0.411083	0.035087	0.798512
	H4630	H	0.414092	-0.534049	0.839056
	H4631	H	0.398321	-0.534265	0.848568
	H4632	H	0.463905	-0.534587	0.826538
	H4633	H	0.480624	-0.534563	0.824554
	H4634	H	0.460792	0.035430	0.785970
	H4635	H	0.476615	0.035440	0.776655
	Al4636	Al	0.437502	0.000176	0.812627
	Al4637	Al	0.437478	0.249857	0.812595
	Al4638	Al	0.368413	0.249309	0.785059
	Al4639	Al	0.368447	0.000361	0.785009
	O4640	O	0.448441	0.041115	0.826008
	O4641	O	0.436721	0.124846	0.801261
	O4642	O	0.438273	0.374810	0.823967
	O4643	O	0.496088	0.041154	0.824994
	O4644	O	0.428450	0.040820	0.828709
	O4645	O	0.384070	0.041512	0.859107
	O4646	O	0.428453	0.208863	0.828687
	O4647	O	0.426551	0.290660	0.799211
	O4648	O	0.378866	0.290369	0.800057
	O4649	O	0.448390	0.209303	0.825938
	O4650	O	0.446543	0.291057	0.796618
	O4651	O	0.490979	0.291454	0.766267
	O4652	O	0.384078	0.209426	0.859109
	O4653	O	0.426569	0.458922	0.799241
	O4654	O	0.378837	0.458891	0.800140
	O4655	O	0.490930	0.459406	0.766177
	O4656	O	0.446499	0.458943	0.796410
	O4657	O	0.496125	0.209504	0.825080
	O4658	O	0.374230	0.375357	0.863738
	O4659	O	0.500780	0.125175	0.761459
	C4660	C	0.476970	0.215122	0.825115
	C4661	C	0.481807	0.125328	0.824518
	C4662	C	0.476942	0.035546	0.825054
	C4663	C	0.467527	0.035591	0.826186
	C4664	C	0.462692	0.125485	0.826702
	C4665	C	0.467552	0.215313	0.826247
	C4666	C	0.452458	0.125377	0.826243
	C4667	C	0.492048	0.125444	0.824794
	C4668	C	0.424762	0.124963	0.831394
	C4669	C	0.415306	0.124941	0.838325
	C4670	C	0.410705	0.214949	0.841098
	C4671	C	0.401800	0.215214	0.846522
	C4672	C	0.397195	0.125502	0.849381
	C4673	C	0.401777	0.035632	0.846471
	C4674	C	0.410687	0.035293	0.841073
	C4675	C	0.387764	0.125403	0.856303
	C4676	C	0.422510	0.374902	0.798911
	C4677	C	0.412271	0.375115	0.798412
	C4678	C	0.407428	0.465210	0.798963
	C4679	C	0.398000	0.465072	0.800052
	C4680	C	0.393155	0.374989	0.800576
	C4681	C	0.398009	0.285158	0.799986
	C4682	C	0.407428	0.285189	0.798908
	C4683	C	0.382902	0.374805	0.800329
	C4684	C	0.450216	0.375141	0.793740
	C4685	C	0.459637	0.374966	0.786756
	C4686	C	0.464260	0.285242	0.784028
	C4687	C	0.473197	0.285347	0.778701
	C4688	C	0.477804	0.375131	0.775865
	C4689	C	0.473194	0.464874	0.778647
	C4690	C	0.464258	0.464683	0.783970
	C4691	C	0.487246	0.375355	0.768944
	H4692	H	0.476658	0.215236	0.776600
	H4693	H	0.460854	0.214960	0.786080
	H4694	H	0.480616	0.285125	0.824712
	H4695	H	0.463894	0.284848	0.826693
	H4696	H	0.435633	0.124933	0.789118
	H4697	H	0.439370	0.374897	0.836020
	H4698	H	0.373269	0.375255	0.851631
	H4699	H	0.501817	0.125210	0.773565
	H4700	H	0.411070	0.215241	0.798454
	H4701	H	0.394380	0.215035	0.800495
	H4702	H	0.398415	0.285551	0.848676
	H4703	H	0.414186	0.284827	0.839118
	H4704	H	0.394366	0.535080	0.800562
	H4705	H	0.411085	0.535090	0.798593
	H4706	H	0.414136	-0.035032	0.839170
	H4707	H	0.398351	-0.034436	0.848645
	H4708	H	0.463887	-0.034346	0.826601
	H4709	H	0.480593	-0.034425	0.824597
	H4710	H	0.460806	0.534774	0.786056
	H4711	H	0.476604	0.534968	0.776596
	Al4712	Al	0.444073	-0.499341	0.902749
	Al4713	Al	0.444103	-0.250061	0.902714
	Al4714	Al	0.374999	-0.249948	0.875147
	Al4715	Al	0.374988	-0.499841	0.875062
	O4716	O	0.453622	-0.459072	0.919649
	O4717	O	0.443709	-0.374925	0.891471
	O4718	O	0.444148	-0.124919	0.914014
	O4719	O	0.491239	-0.459413	0.981494
	O4720	O	0.434642	-0.459271	0.917824
	O4721	O	0.391035	-0.458995	0.950485
	O4722	O	0.434620	-0.290941	0.917772
	O4723	O	0.433615	-0.209096	0.887702
	O4724	O	0.385878	-0.208791	0.888571
	O4725	O	0.453673	-0.290987	0.919686
	O4726	O	0.453519	-0.208750	0.887964
	O4727	O	0.497067	-0.209573	0.855032
	O4728	O	0.391081	-0.290725	0.950558
	O4729	O	0.433639	-0.040596	0.887751
	O4730	O	0.385925	-0.040456	0.888554
	O4731	O	0.497071	-0.041376	0.855077
	O4732	O	0.453530	-0.040725	0.888047
	O4733	O	0.491295	-0.291364	0.981342
	O4734	O	0.381171	-0.125061	0.953984
	O4735	O	0.506603	-0.374881	0.851392
	C4736	C	0.476350	-0.286592	0.956357
	C4737	C	0.480145	-0.375664	0.962688
	C4738	C	0.476309	-0.464631	0.956407
	C4739	C	0.468840	-0.464275	0.944057
	C4740	C	0.465004	-0.375265	0.937833
	C4741	C	0.468891	-0.286332	0.944018
	C4742	C	0.456860	-0.375301	0.924713
	C4743	C	0.488115	-0.375369	0.976229
	C4744	C	0.430997	-0.375002	0.920711
	C4745	C	0.421726	-0.375312	0.928122
	C4746	C	0.417232	-0.285729	0.931255
	C4747	C	0.408495	-0.285696	0.937387
	C4748	C	0.404016	-0.375277	0.940542
	C4749	C	0.408517	-0.465040	0.937523
	C4750	C	0.417264	-0.465024	0.931413
	C4751	C	0.394714	-0.375030	0.947730
	C4752	C	0.429597	-0.124903	0.887460
	C4753	C	0.419335	-0.124979	0.887192
	C4754	C	0.414508	-0.035021	0.887809
	C4755	C	0.405083	-0.034990	0.888882
	C4756	C	0.400225	-0.124988	0.889326
	C4757	C	0.405069	-0.214979	0.888819
	C4758	C	0.414502	-0.214971	0.887729
	C4759	C	0.389945	-0.124745	0.888836
	C4760	C	0.457191	-0.124812	0.885232
	C4761	C	0.466510	-0.124957	0.878020
	C4762	C	0.470978	-0.214715	0.874911
	C4763	C	0.479717	-0.215088	0.868747
	C4764	C	0.484217	-0.125445	0.865567
	C4765	C	0.479733	-0.035694	0.868681
	C4766	C	0.471000	-0.035456	0.874856
	C4767	C	0.493449	-0.125692	0.857955
	H4768	H	0.483062	-0.284944	0.866259
	H4769	H	0.467583	-0.284267	0.877349
	H4770	H	0.479235	-0.217989	0.961188
	H4771	H	0.466012	-0.217012	0.939235
	H4772	H	0.442709	-0.375451	0.879407
	H4773	H	0.444143	-0.124707	0.926280
	H4774	H	0.380248	-0.125272	0.941946
	H4775	H	0.506576	-0.374472	0.863528
	H4776	H	0.418166	-0.284700	0.887358
	H4777	H	0.401436	-0.284884	0.889343
	H4778	H	0.405139	-0.215870	0.939726
	H4779	H	0.420599	-0.216263	0.928761
	H4780	H	0.401442	0.034770	0.889431
	H4781	H	0.418139	0.035093	0.887551
	H4782	H	0.420633	-0.534834	0.929002
	H4783	H	0.405103	-0.534322	0.940047
	H4784	H	0.465919	-0.533270	0.939247
	H4785	H	0.479168	-0.533849	0.961249
	H4786	H	0.467607	0.034005	0.877245
	H4787	H	0.483093	0.034243	0.866187
	Al4788	Al	0.444100	0.000580	0.902713
	Al4789	Al	0.444075	0.249922	0.902729
	Al4790	Al	0.374960	0.250145	0.875062
	Al4791	Al	0.375059	0.000083	0.875180
	O4792	O	0.453589	0.041032	0.919753
	O4793	O	0.443680	0.125190	0.891568
	O4794	O	0.444155	0.375355	0.914045
	O4795	O	0.491302	0.040797	0.981367
	O4796	O	0.434616	0.040633	0.917908
	O4797	O	0.391029	0.040746	0.950473
	O4798	O	0.434538	0.208897	0.917747
	O4799	O	0.433595	0.291218	0.887771
	O4800	O	0.385851	0.291134	0.888496
	O4801	O	0.453592	0.209119	0.919723
	O4802	O	0.453505	0.290915	0.887928
	O4803	O	0.497122	0.291049	0.855345
	O4804	O	0.391025	0.208894	0.950436
	O4805	O	0.433582	0.459411	0.887780
	O4806	O	0.385925	0.459412	0.888506
	O4807	O	0.497061	0.459336	0.855169
	O4808	O	0.453503	0.459284	0.888020
	O4809	O	0.491267	0.208922	0.981422
	O4810	O	0.381196	0.375255	0.954024
	O4811	O	0.506602	0.124705	0.851410
	C4812	C	0.476351	0.214142	0.956335
	C4813	C	0.480157	0.125103	0.962706
	C4814	C	0.476318	0.036076	0.956414
	C4815	C	0.468834	0.036182	0.944146
	C4816	C	0.464992	0.125197	0.937852
	C4817	C	0.468885	0.214268	0.944031
	C4818	C	0.456836	0.125198	0.924745
	C4819	C	0.488145	0.124871	0.976176
	C4820	C	0.430980	0.124504	0.920769
	C4821	C	0.421710	0.124418	0.928174
	C4822	C	0.417243	0.214178	0.931368
	C4823	C	0.408496	0.214311	0.937507
	C4824	C	0.403998	0.124728	0.940540
	C4825	C	0.408467	0.034933	0.937423
	C4826	C	0.417214	0.034773	0.931294
	C4827	C	0.394694	0.124737	0.947742
	C4828	C	0.429535	0.375341	0.887455
	C4829	C	0.419302	0.375171	0.887216
	C4830	C	0.414454	0.464961	0.887789
	C4831	C	0.405029	0.464720	0.888891
	C4832	C	0.400185	0.374906	0.889372
	C4833	C	0.405039	0.285178	0.888820
	C4834	C	0.414465	0.285261	0.887735
	C4835	C	0.389921	0.375004	0.888809
	C4836	C	0.457159	0.375350	0.885171
	C4837	C	0.466465	0.375221	0.877932
	C4838	C	0.470965	0.285512	0.874857
	C4839	C	0.479712	0.285423	0.868737
	C4840	C	0.484194	0.375082	0.865563
	C4841	C	0.479710	0.464893	0.868730
	C4842	C	0.470965	0.464880	0.874864
	C4843	C	0.493480	0.375198	0.858164
	H4844	H	0.483092	0.215714	0.866370
	H4845	H	0.467586	0.216067	0.877275
	H4846	H	0.479269	0.283225	0.961093
	H4847	H	0.466012	0.283283	0.939176
	H4848	H	0.442774	0.124998	0.879438
	H4849	H	0.444079	0.375321	0.926209
	H4850	H	0.380162	0.375257	0.941991
	H4851	H	0.506424	0.124371	0.863674
	H4852	H	0.418102	0.215141	0.887351
	H4853	H	0.401399	0.215380	0.889316
	H4854	H	0.405129	0.283872	0.940030
	H4855	H	0.420639	0.283987	0.928972
	H4856	H	0.401400	0.534866	0.889404
	H4857	H	0.418091	0.534732	0.887447
	H4858	H	0.420576	-0.034929	0.928857
	H4859	H	0.405098	-0.034827	0.939832
	H4860	H	0.465946	-0.032974	0.939341
	H4861	H	0.479217	-0.032949	0.961231
	H4862	H	0.467598	0.534537	0.877308
	H4863	H	0.483128	0.534444	0.866376
	Al4864	Al	0.555937	-0.500325	0.097478
	Al4865	Al	0.555925	-0.249553	0.097433
	Al4866	Al	0.500019	-0.249899	0.000079
	Al4867	Al	0.500014	-0.500168	0.000104
	O4868	O	0.566455	-0.459605	0.112366
	O4869	O	0.555862	-0.374875	0.086176
	O4870	O	0.556367	-0.125089	0.108713
	O4871	O	0.614132	-0.459021	0.111653
	O4872	O	0.546499	-0.459183	0.112149
	O4873	O	0.502936	-0.459800	0.144915
	O4874	O	0.546514	-0.291066	0.112173
	O4875	O	0.546407	-0.209099	0.080477
	O4876	O	0.508730	-0.209305	0.018692
	O4877	O	0.566407	-0.291047	0.112437
	O4878	O	0.565404	-0.209455	0.082298
	O4879	O	0.609068	-0.209306	0.049755
	O4880	O	0.502955	-0.291446	0.144943
	O4881	O	0.546372	-0.041090	0.080505
	O4882	O	0.508679	-0.041124	0.018775
	O4883	O	0.609018	-0.041053	0.049569
	O4884	O	0.565434	-0.041306	0.082416
	O4885	O	0.614135	-0.290750	0.111634
	O4886	O	0.493334	-0.125636	0.148662
	O4887	O	0.618829	-0.375463	0.046160
	C4888	C	0.594976	-0.284822	0.111460
	C4889	C	0.599837	-0.374770	0.110948
	C4890	C	0.594993	-0.464753	0.111391
	C4891	C	0.585560	-0.464890	0.112440
	C4892	C	0.580714	-0.375065	0.113043
	C4893	C	0.585543	-0.284971	0.112521
	C4894	C	0.570473	-0.375220	0.112693
	C4895	C	0.610094	-0.374779	0.111387
	C4896	C	0.542846	-0.375194	0.114916
	C4897	C	0.533535	-0.375281	0.122125
	C4898	C	0.529053	-0.285686	0.125225
	C4899	C	0.520309	-0.285867	0.131387
	C4900	C	0.515843	-0.375680	0.134611
	C4901	C	0.520324	-0.465246	0.131438
	C4902	C	0.529067	-0.465088	0.125278
	C4903	C	0.506556	-0.375589	0.142019
	C4904	C	0.543145	-0.125160	0.075488
	C4905	C	0.535000	-0.125299	0.062383
	C4906	C	0.531081	-0.036328	0.056237
	C4907	C	0.523577	-0.036617	0.043977
	C4908	C	0.519808	-0.125461	0.037507
	C4909	C	0.523675	-0.214511	0.043759
	C4910	C	0.531167	-0.214237	0.056036
	C4911	C	0.511835	-0.125086	0.023968
	C4912	C	0.569029	-0.125489	0.079432
	C4913	C	0.578325	-0.125186	0.071977
	C4914	C	0.582842	-0.214806	0.068893
	C4915	C	0.591601	-0.214917	0.062803
	C4916	C	0.596067	-0.125212	0.059672
	C4917	C	0.591545	-0.035617	0.062666
	C4918	C	0.582794	-0.035606	0.068765
	C4919	C	0.605365	-0.125302	0.052368
	H4920	H	0.594999	-0.284531	0.060415
	H4921	H	0.579472	-0.284782	0.071273
	H4922	H	0.598631	-0.214663	0.111110
	H4923	H	0.581880	-0.215105	0.112953
	H4924	H	0.555960	-0.374860	0.073971
	H4925	H	0.557509	-0.124745	0.120856
	H4926	H	0.493370	-0.125398	0.136490
	H4927	H	0.619632	-0.375534	0.058265
	H4928	H	0.534075	-0.283161	0.060856
	H4929	H	0.520772	-0.283309	0.038939
	H4930	H	0.516918	-0.216191	0.133763
	H4931	H	0.532410	-0.215973	0.122768
	H4932	H	0.520631	0.032164	0.039292
	H4933	H	0.533938	0.032770	0.061115
	H4934	H	0.532464	-0.534876	0.122871
	H4935	H	0.516950	-0.535048	0.133917
	H4936	H	0.581948	-0.535030	0.112794
	H4937	H	0.598647	-0.534754	0.110923
	H4938	H	0.579403	0.034129	0.071084
	H4939	H	0.594897	0.033885	0.060199
	Al4940	Al	0.555918	-0.000450	0.097489
	Al4941	Al	0.555936	0.250506	0.097434
	Al4942	Al	0.500016	0.249871	0.000008
	Al4943	Al	0.499974	-0.000193	0.000045
	O4944	O	0.566403	0.040316	0.112388
	O4945	O	0.555819	0.125015	0.086209
	O4946	O	0.556337	0.374784	0.108730
	O4947	O	0.614118	0.040122	0.111658
	O4948	O	0.546500	0.040610	0.112174
	O4949	O	0.502945	0.040487	0.144837
	O4950	O	0.546498	0.208994	0.112195
	O4951	O	0.546421	0.291139	0.080507
	O4952	O	0.508772	0.290943	0.018714
	O4953	O	0.566395	0.208728	0.112541
	O4954	O	0.565441	0.290788	0.082466
	O4955	O	0.609033	0.290419	0.049635
	O4956	O	0.502967	0.208861	0.144975
	O4957	O	0.546368	0.458779	0.080578
	O4958	O	0.508741	0.458883	0.018761
	O4959	O	0.609027	0.458641	0.049604
	O4960	O	0.565439	0.458885	0.082391
	O4961	O	0.614121	0.208343	0.111592
	O4962	O	0.493325	0.374386	0.148775
	O4963	O	0.618845	0.125068	0.045993
	C4964	C	0.594979	0.214388	0.111466
	C4965	C	0.599823	0.124444	0.110896
	C4966	C	0.594971	0.034301	0.111300
	C4967	C	0.585538	0.034239	0.112341
	C4968	C	0.580703	0.124256	0.112997
	C4969	C	0.585543	0.214295	0.112532
	C4970	C	0.570449	0.124575	0.112732
	C4971	C	0.610101	0.124194	0.111322
	C4972	C	0.542850	0.124893	0.114979
	C4973	C	0.533545	0.124856	0.122183
	C4974	C	0.529046	0.214538	0.125202
	C4975	C	0.520303	0.214488	0.131345
	C4976	C	0.515839	0.124771	0.134562
	C4977	C	0.520311	0.034991	0.131409
	C4978	C	0.529059	0.035120	0.125275
	C4979	C	0.506589	0.124621	0.142015
	C4980	C	0.543165	0.374750	0.075529
	C4981	C	0.534967	0.375189	0.062489
	C4982	C	0.531078	0.464062	0.056364
	C4983	C	0.523597	0.464103	0.044069
	C4984	C	0.519820	0.375307	0.037587
	C4985	C	0.523645	0.286431	0.043884
	C4986	C	0.531135	0.286360	0.056183
	C4987	C	0.511889	0.374969	0.023954
	C4988	C	0.569051	0.374740	0.079490
	C4989	C	0.578294	0.374425	0.071943
	C4990	C	0.582793	0.284779	0.068878
	C4991	C	0.591541	0.284849	0.062735
	C4992	C	0.596035	0.374439	0.059554
	C4993	C	0.591552	0.464061	0.062677
	C4994	C	0.582806	0.463973	0.068830
	C4995	C	0.605335	0.374654	0.052350
	H4996	H	0.594910	0.215100	0.060372
	H4997	H	0.579413	0.215105	0.071350
	H4998	H	0.598632	0.284247	0.111070
	H4999	H	0.581898	0.284307	0.113014
	H5000	H	0.555835	0.125403	0.074025
	H5001	H	0.557283	0.374367	0.120788
	H5002	H	0.493392	0.374865	0.136570
	H5003	H	0.619849	0.125191	0.058190
	H5004	H	0.534062	0.217548	0.060853
	H5005	H	0.520790	0.217668	0.039017
	H5006	H	0.516930	0.284275	0.133727
	H5007	H	0.532439	0.284022	0.122776
	H5008	H	0.520687	0.533141	0.039294
	H5009	H	0.533954	0.532920	0.061167
	H5010	H	0.532436	-0.034120	0.122897
	H5011	H	0.516961	-0.034683	0.133871
	H5012	H	0.581892	-0.035721	0.112651
	H5013	H	0.598592	-0.035640	0.110751
	H5014	H	0.579475	0.534102	0.071333
	H5015	H	0.594954	0.533549	0.060308
	Al5016	Al	0.562498	-0.500154	0.187470
	Al5017	Al	0.562525	-0.250167	0.187478
	Al5018	Al	0.493455	-0.251064	0.160051
	Al5019	Al	0.493466	-0.500042	0.160008
	O5020	O	0.573410	-0.459228	0.200843
	O5021	O	0.561716	-0.374984	0.176166
	O5022	O	0.563259	-0.125166	0.198856
	O5023	O	0.621146	-0.458952	0.200222
	O5024	O	0.553454	-0.459157	0.203658
	O5025	O	0.509084	-0.459184	0.233943
	O5026	O	0.553501	-0.291114	0.203661
	O5027	O	0.551592	-0.209161	0.174047
	O5028	O	0.503907	-0.209660	0.175041
	O5029	O	0.573441	-0.290876	0.200787
	O5030	O	0.571521	-0.208911	0.171483
	O5031	O	0.615960	-0.208982	0.141151
	O5032	O	0.509023	-0.291242	0.233926
	O5033	O	0.551613	-0.040796	0.174069
	O5034	O	0.503943	-0.041154	0.174935
	O5035	O	0.615938	-0.040883	0.141091
	O5036	O	0.571569	-0.040972	0.171624
	O5037	O	0.621147	-0.290423	0.200145
	O5038	O	0.499181	-0.125037	0.238624
	O5039	O	0.625801	-0.375088	0.136467
	C5040	C	0.601998	-0.285135	0.200288
	C5041	C	0.606864	-0.374939	0.199582
	C5042	C	0.602022	-0.465065	0.200080
	C5043	C	0.592582	-0.465053	0.201121
	C5044	C	0.587727	-0.375117	0.201676
	C5045	C	0.592576	-0.285137	0.201350
	C5046	C	0.577481	-0.375162	0.201157
	C5047	C	0.617109	-0.374628	0.199934
	C5048	C	0.549779	-0.375110	0.206343
	C5049	C	0.540326	-0.374992	0.213224
	C5050	C	0.535727	-0.285088	0.215968
	C5051	C	0.526785	-0.285095	0.221288
	C5052	C	0.522185	-0.374797	0.224121
	C5053	C	0.526802	-0.464633	0.221470
	C5054	C	0.535743	-0.464813	0.216141
	C5055	C	0.512758	-0.374997	0.231155
	C5056	C	0.547560	-0.125037	0.173834
	C5057	C	0.537313	-0.125159	0.173472
	C5058	C	0.532464	-0.035275	0.173975
	C5059	C	0.523034	-0.035493	0.175073
	C5060	C	0.518219	-0.125526	0.175640
	C5061	C	0.523054	-0.215491	0.175079
	C5062	C	0.532479	-0.215207	0.173998
	C5063	C	0.507972	-0.125512	0.175253
	C5064	C	0.575232	-0.125032	0.168772
	C5065	C	0.584686	-0.125145	0.161860
	C5066	C	0.589288	-0.214774	0.159037
	C5067	C	0.598207	-0.214773	0.153646
	C5068	C	0.602823	-0.124988	0.150859
	C5069	C	0.598208	-0.035384	0.153677
	C5070	C	0.589294	-0.035482	0.159063
	C5071	C	0.612262	-0.124933	0.143900
	H5072	H	0.601628	-0.284800	0.151468
	H5073	H	0.585844	-0.284862	0.160981
	H5074	H	0.605646	-0.215117	0.199888
	H5075	H	0.588935	-0.214980	0.201706
	H5076	H	0.560571	-0.374287	0.164067
	H5077	H	0.564215	-0.125568	0.211014
	H5078	H	0.498049	-0.124466	0.226547
	H5079	H	0.626876	-0.375703	0.148574
	H5080	H	0.536118	-0.285494	0.173618
	H5081	H	0.519435	-0.285565	0.175589
	H5082	H	0.523379	-0.214588	0.223233
	H5083	H	0.539138	-0.214889	0.213795
	H5084	H	0.519407	0.034489	0.175578
	H5085	H	0.536106	0.035032	0.173625
	H5086	H	0.539140	-0.535128	0.214161
	H5087	H	0.523375	-0.534685	0.223608
	H5088	H	0.588909	-0.535210	0.201360
	H5089	H	0.605652	-0.534984	0.199584
	H5090	H	0.585833	0.034666	0.161049
	H5091	H	0.601591	0.034648	0.151545
	Al5092	Al	0.562487	-0.000054	0.187546
	Al5093	Al	0.562515	0.249993	0.187537
	Al5094	Al	0.493452	0.248963	0.160077
	Al5095	Al	0.493465	-0.000209	0.159935
	O5096	O	0.573429	0.040753	0.200927
	O5097	O	0.561713	0.124960	0.176240
	O5098	O	0.563269	0.375030	0.198944
	O5099	O	0.621138	0.041005	0.200135
	O5100	O	0.553444	0.041179	0.203655
	O5101	O	0.509053	0.040747	0.234000
	O5102	O	0.553428	0.209264	0.203580
	O5103	O	0.551611	0.291068	0.174078
	O5104	O	0.503920	0.290739	0.174970
	O5105	O	0.573399	0.208968	0.201019
	O5106	O	0.571560	0.290548	0.171557
	O5107	O	0.615959	0.290638	0.141135
	O5108	O	0.508992	0.208945	0.233825
	O5109	O	0.551572	0.459247	0.174094
	O5110	O	0.503938	0.459202	0.175010
	O5111	O	0.615981	0.458561	0.141095
	O5112	O	0.571502	0.458716	0.171318
	O5113	O	0.621153	0.209374	0.200095
	O5114	O	0.499206	0.374938	0.238597
	O5115	O	0.625772	0.124977	0.136389
	C5116	C	0.601975	0.215029	0.200036
	C5117	C	0.606837	0.125156	0.199528
	C5118	C	0.601997	0.035168	0.200178
	C5119	C	0.592569	0.035064	0.201285
	C5120	C	0.587709	0.125011	0.201668
	C5121	C	0.592541	0.215029	0.201122
	C5122	C	0.577450	0.124959	0.201247
	C5123	C	0.617088	0.125205	0.199807
	C5124	C	0.549735	0.125313	0.206337
	C5125	C	0.540282	0.125163	0.213270
	C5126	C	0.535681	0.214893	0.216039
	C5127	C	0.526760	0.214851	0.221374
	C5128	C	0.522170	0.125146	0.224219
	C5129	C	0.526780	0.035414	0.221480
	C5130	C	0.535701	0.035492	0.216173
	C5131	C	0.512724	0.124817	0.231184
	C5132	C	0.547546	0.375084	0.173777
	C5133	C	0.537294	0.374950	0.173423
	C5134	C	0.532465	0.464882	0.173950
	C5135	C	0.523042	0.464796	0.175027
	C5136	C	0.518214	0.374777	0.175531
	C5137	C	0.523047	0.284828	0.174961
	C5138	C	0.532480	0.284934	0.173869
	C5139	C	0.507973	0.374975	0.175302
	C5140	C	0.575252	0.374732	0.168729
	C5141	C	0.584688	0.374684	0.161761
	C5142	C	0.589333	0.285133	0.159082
	C5143	C	0.598275	0.285108	0.153741
	C5144	C	0.602847	0.374874	0.150916
	C5145	C	0.598240	0.464408	0.153632
	C5146	C	0.589292	0.464422	0.158986
	C5147	C	0.612274	0.374729	0.143902
	H5148	H	0.601687	0.214823	0.151694
	H5149	H	0.585913	0.214812	0.161147
	H5150	H	0.605612	0.285155	0.199448
	H5151	H	0.588881	0.285029	0.201458
	H5152	H	0.560657	0.124354	0.164204
	H5153	H	0.564113	0.375081	0.211083
	H5154	H	0.498180	0.374769	0.226513
	H5155	H	0.626824	0.124573	0.148490
	H5156	H	0.536122	0.214905	0.173469
	H5157	H	0.519427	0.214716	0.175461
	H5158	H	0.523306	0.284948	0.223411
	H5159	H	0.539097	0.285096	0.214001
	H5160	H	0.519427	0.535033	0.175547
	H5161	H	0.536092	0.534822	0.173601
	H5162	H	0.539159	-0.034674	0.214246
	H5163	H	0.523367	-0.034762	0.223617
	H5164	H	0.588944	-0.035085	0.201716
	H5165	H	0.605650	-0.034885	0.199677
	H5166	H	0.585871	0.534617	0.160953
	H5167	H	0.601640	0.534565	0.151534
	Al5168	Al	0.569090	-0.499110	0.277685
	Al5169	Al	0.569108	-0.250210	0.277683
	Al5170	Al	0.500027	-0.250059	0.249966
	Al5171	Al	0.500011	-0.500134	0.249922
	O5172	O	0.578597	-0.458340	0.294623
	O5173	O	0.568659	-0.374653	0.266490
	O5174	O	0.569153	-0.124635	0.288885
	O5175	O	0.616275	-0.459083	0.356434
	O5176	O	0.559613	-0.458691	0.292806
	O5177	O	0.515976	-0.458697	0.325358
	O5178	O	0.559572	-0.290208	0.292798
	O5179	O	0.558651	-0.208702	0.262609
	O5180	O	0.510916	-0.209010	0.263497
	O5181	O	0.578650	-0.290344	0.294676
	O5182	O	0.578467	-0.208767	0.262860
	O5183	O	0.622137	-0.209265	0.230255
	O5184	O	0.515997	-0.290436	0.325332
	O5185	O	0.558601	-0.040455	0.262502
	O5186	O	0.510930	-0.040662	0.263422
	O5187	O	0.622112	-0.041100	0.230197
	O5188	O	0.578555	-0.040550	0.262959
	O5189	O	0.616279	-0.290903	0.356421
	O5190	O	0.506204	-0.124897	0.328853
	O5191	O	0.631655	-0.374421	0.226413
	C5192	C	0.601337	-0.286299	0.331445
	C5193	C	0.605193	-0.375232	0.337648
	C5194	C	0.601375	-0.464175	0.331260
	C5195	C	0.593895	-0.463941	0.318924
	C5196	C	0.590027	-0.374996	0.312740
	C5197	C	0.593858	-0.286123	0.319116
	C5198	C	0.581864	-0.374412	0.299638
	C5199	C	0.613128	-0.374932	0.351269
	C5200	C	0.555968	-0.374530	0.295664
	C5201	C	0.546695	-0.374630	0.303054
	C5202	C	0.542213	-0.284667	0.306160
	C5203	C	0.533451	-0.284759	0.312317
	C5204	C	0.528969	-0.374669	0.315433
	C5205	C	0.533473	-0.464458	0.312437
	C5206	C	0.542244	-0.464560	0.306275
	C5207	C	0.519662	-0.374582	0.322597
	C5208	C	0.554571	-0.124697	0.262315
	C5209	C	0.544310	-0.124864	0.262050
	C5210	C	0.539480	-0.035048	0.262542
	C5211	C	0.530046	-0.035315	0.263645
	C5212	C	0.525218	-0.125294	0.264167
	C5213	C	0.530057	-0.215183	0.263726
	C5214	C	0.539495	-0.214874	0.262640
	C5215	C	0.514955	-0.124979	0.263773
	C5216	C	0.582167	-0.124785	0.260092
	C5217	C	0.591488	-0.125068	0.252921
	C5218	C	0.595980	-0.214747	0.249854
	C5219	C	0.604753	-0.214962	0.243772
	C5220	C	0.609230	-0.125293	0.240558
	C5221	C	0.604694	-0.035647	0.243521
	C5222	C	0.595932	-0.035517	0.249617
	C5223	C	0.618483	-0.125265	0.233123
	H5224	H	0.608128	-0.284586	0.241396
	H5225	H	0.592588	-0.284357	0.252188
	H5226	H	0.604161	-0.217303	0.336392
	H5227	H	0.590935	-0.217169	0.314447
	H5228	H	0.567641	-0.375405	0.254391
	H5229	H	0.569167	-0.124338	0.301063
	H5230	H	0.505445	-0.125019	0.316774
	H5231	H	0.631368	-0.374179	0.238619
	H5232	H	0.543134	-0.284911	0.262190
	H5233	H	0.526422	-0.285353	0.264175
	H5234	H	0.530075	-0.215037	0.314616
	H5235	H	0.545533	-0.214695	0.303685
	H5236	H	0.526415	0.034894	0.264038
	H5237	H	0.543105	0.034995	0.262053
	H5238	H	0.545628	-0.534369	0.303931
	H5239	H	0.530108	-0.534093	0.314918
	H5240	H	0.591003	-0.532819	0.314089
	H5241	H	0.604225	-0.533314	0.336076
	H5242	H	0.592486	0.034203	0.251753
	H5243	H	0.608021	0.034171	0.240970
	Al5244	Al	0.569093	0.000650	0.277500
	Al5245	Al	0.569083	0.249897	0.277638
	Al5246	Al	0.500006	0.249948	0.249954
	Al5247	Al	0.500003	-0.000127	0.250021
	O5248	O	0.578587	0.041639	0.294565
	O5249	O	0.568680	0.125445	0.266366
	O5250	O	0.569195	0.375266	0.288966
	O5251	O	0.616267	0.040805	0.356371
	O5252	O	0.559569	0.040604	0.292568
	O5253	O	0.516021	0.040756	0.325529
	O5254	O	0.559634	0.208970	0.292750
	O5255	O	0.558643	0.291440	0.262627
	O5256	O	0.510957	0.290402	0.263332
	O5257	O	0.578690	0.209604	0.294498
	O5258	O	0.578537	0.291773	0.263029
	O5259	O	0.622108	0.290842	0.230173
	O5260	O	0.516075	0.208857	0.325478
	O5261	O	0.558644	0.459944	0.262734
	O5262	O	0.510935	0.458747	0.263305
	O5263	O	0.622075	0.459051	0.230051
	O5264	O	0.578566	0.459917	0.263107
	O5265	O	0.616217	0.208887	0.356468
	O5266	O	0.506158	0.375060	0.328869
	O5267	O	0.631646	0.125341	0.226392
	C5268	C	0.601303	0.213623	0.331403
	C5269	C	0.605143	0.124658	0.337692
	C5270	C	0.601336	0.035593	0.331325
	C5271	C	0.593873	0.035713	0.318954
	C5272	C	0.590017	0.124797	0.312726
	C5273	C	0.593858	0.213633	0.319040
	C5274	C	0.581890	0.125458	0.299508
	C5275	C	0.613127	0.124768	0.351214
	C5276	C	0.555996	0.124955	0.295608
	C5277	C	0.546734	0.124574	0.303052
	C5278	C	0.542238	0.214258	0.306172
	C5279	C	0.533503	0.214468	0.312326
	C5280	C	0.529019	0.124910	0.315479
	C5281	C	0.533524	0.035309	0.312477
	C5282	C	0.542261	0.035172	0.306313
	C5283	C	0.519712	0.124635	0.322726
	C5284	C	0.554588	0.375664	0.262438
	C5285	C	0.544352	0.375490	0.262158
	C5286	C	0.539488	0.465318	0.262635
	C5287	C	0.530060	0.465221	0.263682
	C5288	C	0.525227	0.374971	0.264206
	C5289	C	0.530094	0.285172	0.263695
	C5290	C	0.539515	0.285392	0.262665
	C5291	C	0.514983	0.374728	0.263626
	C5292	C	0.582191	0.375603	0.260279
	C5293	C	0.591522	0.375407	0.253095
	C5294	C	0.595974	0.285643	0.249937
	C5295	C	0.604711	0.285454	0.243742
	C5296	C	0.609203	0.375087	0.240489
	C5297	C	0.604743	0.464818	0.243697
	C5298	C	0.596012	0.464966	0.249893
	C5299	C	0.618480	0.374980	0.233035
	H5300	H	0.608094	0.215561	0.241296
	H5301	H	0.592570	0.216071	0.252365
	H5302	H	0.604193	0.282753	0.336198
	H5303	H	0.590987	0.282538	0.314190
	H5304	H	0.567763	0.124904	0.254357
	H5305	H	0.569367	0.375258	0.301154
	H5306	H	0.505133	0.374584	0.316780
	H5307	H	0.631537	0.125495	0.238579
	H5308	H	0.543182	0.215488	0.262273
	H5309	H	0.526460	0.215213	0.264140
	H5310	H	0.530100	0.283991	0.314683
	H5311	H	0.545634	0.283709	0.303750
	H5312	H	0.526377	0.534985	0.264131
	H5313	H	0.543113	0.535410	0.262196
	H5314	H	0.545635	-0.034860	0.304000
	H5315	H	0.530138	-0.033975	0.314953
	H5316	H	0.591019	-0.033061	0.314047
	H5317	H	0.604258	-0.033264	0.336092
	H5318	H	0.592643	0.534572	0.252281
	H5319	H	0.608102	0.534583	0.241297
	Al5320	Al	0.562431	-0.499920	0.437484
	Al5321	Al	0.562468	-0.249804	0.437489
	Al5322	Al	0.506558	-0.249675	0.339972
	Al5323	Al	0.506560	-0.500426	0.340086
	O5324	O	0.571159	-0.458931	0.456200
	O5325	O	0.563019	-0.374955	0.426479
	O5326	O	0.561908	-0.124840	0.448499
	O5327	O	0.608870	-0.458400	0.517886
	O5328	O	0.552321	-0.458866	0.450456
	O5329	O	0.510040	-0.458960	0.487081
	O5330	O	0.552401	-0.290648	0.450604
	O5331	O	0.553724	-0.209049	0.418827
	O5332	O	0.516085	-0.208656	0.357130
	O5333	O	0.571207	-0.290719	0.456164
	O5334	O	0.572508	-0.209016	0.424363
	O5335	O	0.614974	-0.209126	0.388187
	O5336	O	0.509976	-0.290584	0.487022
	O5337	O	0.553718	-0.041033	0.418848
	O5338	O	0.516127	-0.040738	0.357074
	O5339	O	0.614981	-0.041064	0.388203
	O5340	O	0.572487	-0.040899	0.424240
	O5341	O	0.608849	-0.290471	0.517853
	O5342	O	0.500450	-0.125017	0.489057
	O5343	O	0.624553	-0.374819	0.386135
	C5344	C	0.593566	-0.285514	0.493587
	C5345	C	0.597487	-0.374609	0.499739
	C5346	C	0.593640	-0.463735	0.493484
	C5347	C	0.586162	-0.463783	0.481202
	C5348	C	0.582318	-0.374728	0.474854
	C5349	C	0.586089	-0.285614	0.481304
	C5350	C	0.574350	-0.374953	0.461354
	C5351	C	0.605642	-0.374486	0.512787
	C5352	C	0.548807	-0.374602	0.453544
	C5353	C	0.539729	-0.374386	0.461531
	C5354	C	0.535419	-0.285141	0.465177
	C5355	C	0.526952	-0.285149	0.472433
	C5356	C	0.522642	-0.374306	0.476114
	C5357	C	0.526973	-0.463486	0.472490
	C5358	C	0.535440	-0.463678	0.465255
	C5359	C	0.513576	-0.374642	0.484064
	C5360	C	0.550567	-0.125031	0.413608
	C5361	C	0.542603	-0.124875	0.400079
	C5362	C	0.538843	-0.035958	0.393711
	C5363	C	0.531353	-0.035795	0.381403
	C5364	C	0.527460	-0.124715	0.375265
	C5365	C	0.531250	-0.213611	0.381584
	C5366	C	0.538744	-0.213702	0.393899
	C5367	C	0.519342	-0.124896	0.362063
	C5368	C	0.576071	-0.125074	0.421329
	C5369	C	0.585164	-0.125142	0.413434
	C5370	C	0.589486	-0.214376	0.409809
	C5371	C	0.597979	-0.214168	0.402657
	C5372	C	0.602312	-0.124919	0.399036
	C5373	C	0.597987	-0.035713	0.402663
	C5374	C	0.589508	-0.035920	0.409815
	C5375	C	0.611400	-0.125127	0.391169
	H5376	H	0.601278	-0.282972	0.399719
	H5377	H	0.586178	-0.283464	0.412651
	H5378	H	0.596453	-0.216317	0.498426
	H5379	H	0.583154	-0.216621	0.476542
	H5380	H	0.563772	-0.374207	0.414541
	H5381	H	0.561485	-0.124153	0.460599
	H5382	H	0.500960	-0.124568	0.477012
	H5383	H	0.624060	-0.374964	0.398153
	H5384	H	0.541571	-0.282866	0.398750
	H5385	H	0.528355	-0.282879	0.376832
	H5386	H	0.523666	-0.216421	0.475301
	H5387	H	0.538726	-0.216203	0.462268
	H5388	H	0.528538	0.033395	0.376493
	H5389	H	0.541772	0.033064	0.398392
	H5390	H	0.538726	-0.532294	0.462396
	H5391	H	0.523695	-0.532059	0.475377
	H5392	H	0.583285	-0.532887	0.476361
	H5393	H	0.596575	-0.532732	0.498217
	H5394	H	0.586231	0.033083	0.412735
	H5395	H	0.601271	0.033317	0.399813
	Al5396	Al	0.562458	0.000236	0.437430
	Al5397	Al	0.562474	0.250215	0.437534
	Al5398	Al	0.506624	0.250520	0.340081
	Al5399	Al	0.506575	-0.000463	0.340181
	O5400	O	0.571270	0.040867	0.456016
	O5401	O	0.562979	0.125195	0.426415
	O5402	O	0.561934	0.375219	0.448480
	O5403	O	0.608858	0.041297	0.517921
	O5404	O	0.552423	0.041089	0.450564
	O5405	O	0.510015	0.040897	0.487044
	O5406	O	0.552394	0.209279	0.450577
	O5407	O	0.553705	0.290928	0.418956
	O5408	O	0.516073	0.291534	0.357106
	O5409	O	0.571198	0.208999	0.456191
	O5410	O	0.572541	0.290748	0.424467
	O5411	O	0.614940	0.291088	0.388181
	O5412	O	0.509967	0.208963	0.486874
	O5413	O	0.553789	0.459004	0.418759
	O5414	O	0.516114	0.459485	0.357046
	O5415	O	0.614877	0.459593	0.388004
	O5416	O	0.572509	0.459246	0.424456
	O5417	O	0.608851	0.209012	0.517954
	O5418	O	0.500466	0.374998	0.488940
	O5419	O	0.624485	0.125045	0.386073
	C5420	C	0.593635	0.214080	0.493436
	C5421	C	0.597459	0.125191	0.499839
	C5422	C	0.593607	0.035951	0.493631
	C5423	C	0.586148	0.035654	0.481281
	C5424	C	0.582325	0.124652	0.474855
	C5425	C	0.586167	0.213761	0.481095
	C5426	C	0.574351	0.124983	0.461372
	C5427	C	0.605601	0.125076	0.512942
	C5428	C	0.548852	0.125073	0.453615
	C5429	C	0.539782	0.125374	0.461629
	C5430	C	0.535450	0.214543	0.465203
	C5431	C	0.526966	0.214399	0.472401
	C5432	C	0.522661	0.125207	0.476115
	C5433	C	0.526983	0.036193	0.472484
	C5434	C	0.535467	0.036451	0.465305
	C5435	C	0.513564	0.125142	0.484008
	C5436	C	0.550579	0.374986	0.413704
	C5437	C	0.542635	0.375157	0.400125
	C5438	C	0.538813	0.463979	0.393779
	C5439	C	0.531356	0.464153	0.381449
	C5440	C	0.527476	0.375289	0.375216
	C5441	C	0.531325	0.286286	0.381493
	C5442	C	0.538786	0.286320	0.393788
	C5443	C	0.519321	0.375331	0.362105
	C5444	C	0.576076	0.375026	0.421470
	C5445	C	0.585180	0.374973	0.413611
	C5446	C	0.589495	0.285734	0.410034
	C5447	C	0.597971	0.285853	0.402803
	C5448	C	0.602284	0.375131	0.399084
	C5449	C	0.597981	0.464585	0.402723
	C5450	C	0.589495	0.464365	0.409949
	C5451	C	0.611357	0.375074	0.391116
	H5452	H	0.601274	0.216809	0.400024
	H5453	H	0.586207	0.216791	0.412877
	H5454	H	0.596543	0.282966	0.498152
	H5455	H	0.583274	0.282574	0.476270
	H5456	H	0.563484	0.125476	0.414408
	H5457	H	0.561362	0.375247	0.460549
	H5458	H	0.501138	0.375241	0.476969
	H5459	H	0.623982	0.124954	0.398054
	H5460	H	0.541612	0.217588	0.398735
	H5461	H	0.528376	0.217615	0.376797
	H5462	H	0.523640	0.283062	0.475242
	H5463	H	0.538723	0.283389	0.462352
	H5464	H	0.528482	0.532968	0.376622
	H5465	H	0.541701	0.532689	0.398650
	H5466	H	0.538788	-0.032769	0.462434
	H5467	H	0.523694	-0.032567	0.475365
	H5468	H	0.583222	-0.033529	0.476578
	H5469	H	0.596466	-0.033082	0.498547
	H5470	H	0.586191	0.533247	0.412795
	H5471	H	0.601280	0.533476	0.399850
	Al5472	Al	0.555864	-0.500362	0.597413
	Al5473	Al	0.555861	-0.249504	0.597403
	Al5474	Al	0.499932	-0.249962	0.500063
	Al5475	Al	0.499947	-0.500296	0.500030
	O5476	O	0.566377	-0.459266	0.612408
	O5477	O	0.555789	-0.375073	0.586129
	O5478	O	0.556354	-0.124909	0.608695
	O5479	O	0.614065	-0.459619	0.611641
	O5480	O	0.546446	-0.458972	0.612140
	O5481	O	0.502964	-0.459647	0.645088
	O5482	O	0.546414	-0.290676	0.611994
	O5483	O	0.546382	-0.208642	0.580416
	O5484	O	0.508716	-0.209284	0.518703
	O5485	O	0.566356	-0.291108	0.612363
	O5486	O	0.565358	-0.209160	0.582405
	O5487	O	0.608962	-0.209176	0.549634
	O5488	O	0.502897	-0.291447	0.644896
	O5489	O	0.546380	-0.041047	0.580547
	O5490	O	0.508696	-0.041228	0.518732
	O5491	O	0.608931	-0.041091	0.549536
	O5492	O	0.565387	-0.041037	0.582283
	O5493	O	0.614099	-0.291305	0.611557
	O5494	O	0.493407	-0.125508	0.648703
	O5495	O	0.618785	-0.374988	0.546109
	C5496	C	0.594938	-0.285293	0.611429
	C5497	C	0.599791	-0.375144	0.610969
	C5498	C	0.594953	-0.465058	0.611416
	C5499	C	0.585523	-0.465003	0.612456
	C5500	C	0.580671	-0.375179	0.613036
	C5501	C	0.585499	-0.285264	0.612494
	C5502	C	0.570409	-0.375134	0.612648
	C5503	C	0.610042	-0.375331	0.611335
	C5504	C	0.542786	-0.374980	0.614850
	C5505	C	0.533478	-0.375238	0.622015
	C5506	C	0.529003	-0.285570	0.625224
	C5507	C	0.520259	-0.285571	0.631394
	C5508	C	0.515787	-0.375327	0.634529
	C5509	C	0.520270	-0.465089	0.631337
	C5510	C	0.529015	-0.465066	0.625148
	C5511	C	0.506542	-0.375286	0.642045
	C5512	C	0.543138	-0.124525	0.575456
	C5513	C	0.535002	-0.124406	0.562317
	C5514	C	0.531151	-0.035944	0.555998
	C5515	C	0.523672	-0.036394	0.543639
	C5516	C	0.519855	-0.125109	0.537414
	C5517	C	0.523718	-0.213562	0.543709
	C5518	C	0.531197	-0.213087	0.556055
	C5519	C	0.511843	-0.125327	0.523962
	C5520	C	0.568998	-0.125262	0.579409
	C5521	C	0.578258	-0.125483	0.572024
	C5522	C	0.582738	-0.214978	0.568728
	C5523	C	0.591479	-0.214922	0.562590
	C5524	C	0.595999	-0.125247	0.559603
	C5525	C	0.591482	-0.035599	0.562649
	C5526	C	0.582738	-0.035748	0.568789
	C5527	C	0.605286	-0.125217	0.552384
	H5528	H	0.594864	-0.284348	0.560093
	H5529	H	0.579346	-0.285049	0.571024
	H5530	H	0.598590	-0.215447	0.610988
	H5531	H	0.581844	-0.215296	0.612880
	H5532	H	0.555802	-0.375163	0.573919
	H5533	H	0.557387	-0.124558	0.620736
	H5534	H	0.493590	-0.125725	0.636505
	H5535	H	0.619685	-0.374807	0.558254
	H5536	H	0.534086	-0.281742	0.560858
	H5537	H	0.520872	-0.282615	0.538952
	H5538	H	0.516886	-0.215764	0.633860
	H5539	H	0.532405	-0.215776	0.622869
	H5540	H	0.520802	0.032579	0.538852
	H5541	H	0.534035	0.033163	0.560687
	H5542	H	0.532422	-0.534525	0.622791
	H5543	H	0.516916	-0.534832	0.633798
	H5544	H	0.581889	-0.534784	0.612798
	H5545	H	0.598578	-0.535005	0.610950
	H5546	H	0.579333	0.033796	0.571150
	H5547	H	0.594845	0.034192	0.560181
	Al5548	Al	0.555922	-0.000652	0.597454
	Al5549	Al	0.555877	0.250478	0.597458
	Al5550	Al	0.499921	0.249990	0.499972
	Al5551	Al	0.499959	-0.000128	0.500102
	O5552	O	0.566442	0.040671	0.612329
	O5553	O	0.555804	0.124991	0.586141
	O5554	O	0.556310	0.375280	0.608735
	O5555	O	0.614103	0.040370	0.611489
	O5556	O	0.546485	0.040742	0.612093
	O5557	O	0.502888	0.040496	0.644865
	O5558	O	0.546408	0.209101	0.612097
	O5559	O	0.546357	0.291435	0.580459
	O5560	O	0.508719	0.291135	0.518660
	O5561	O	0.566406	0.209140	0.612339
	O5562	O	0.565416	0.290458	0.582536
	O5563	O	0.608956	0.291161	0.549638
	O5564	O	0.502950	0.208848	0.645043
	O5565	O	0.546332	0.459062	0.580459
	O5566	O	0.508714	0.458991	0.518676
	O5567	O	0.608893	0.459480	0.549543
	O5568	O	0.565314	0.458892	0.582255
	O5569	O	0.614143	0.208426	0.611464
	O5570	O	0.493361	0.374720	0.648683
	O5571	O	0.618746	0.125052	0.546180
	C5572	C	0.594988	0.214849	0.611338
	C5573	C	0.599829	0.124768	0.610844
	C5574	C	0.594978	0.034930	0.611295
	C5575	C	0.585542	0.035265	0.612407
	C5576	C	0.580711	0.125167	0.613062
	C5577	C	0.585554	0.215003	0.612446
	C5578	C	0.570449	0.125055	0.612630
	C5579	C	0.610088	0.124604	0.611222
	C5580	C	0.542767	0.124777	0.614819
	C5581	C	0.533498	0.124905	0.622110
	C5582	C	0.529000	0.214636	0.625163
	C5583	C	0.520280	0.214479	0.631388
	C5584	C	0.515809	0.124716	0.634633
	C5585	C	0.520293	0.034959	0.631447
	C5586	C	0.529018	0.035229	0.625248
	C5587	C	0.506541	0.124410	0.642054
	C5588	C	0.543122	0.375188	0.575377
	C5589	C	0.534995	0.375035	0.562255
	C5590	C	0.531148	0.463749	0.555943
	C5591	C	0.523656	0.463693	0.543661
	C5592	C	0.519834	0.374835	0.537382
	C5593	C	0.523643	0.286202	0.543765
	C5594	C	0.531138	0.286232	0.556044
	C5595	C	0.511847	0.374908	0.523889
	C5596	C	0.568986	0.374705	0.579472
	C5597	C	0.578263	0.374526	0.572015
	C5598	C	0.582740	0.284666	0.568829
	C5599	C	0.591473	0.284937	0.562608
	C5600	C	0.595952	0.374815	0.559502
	C5601	C	0.591454	0.464460	0.562569
	C5602	C	0.582718	0.464300	0.568746
	C5603	C	0.605275	0.375244	0.552377
	H5604	H	0.594887	0.215234	0.560228
	H5605	H	0.579390	0.215047	0.571370
	H5606	H	0.598625	0.284905	0.610979
	H5607	H	0.581913	0.285040	0.612865
	H5608	H	0.555887	0.124702	0.573987
	H5609	H	0.557352	0.375730	0.620816
	H5610	H	0.493617	0.374512	0.636541
	H5611	H	0.619544	0.125309	0.558257
	H5612	H	0.534016	0.217327	0.560786
	H5613	H	0.520741	0.217418	0.539001
	H5614	H	0.516875	0.284099	0.633724
	H5615	H	0.532359	0.284148	0.622615
	H5616	H	0.520800	0.532651	0.538801
	H5617	H	0.534031	0.532510	0.560697
	H5618	H	0.532406	-0.034406	0.622827
	H5619	H	0.516912	-0.034559	0.633921
	H5620	H	0.581907	-0.034681	0.612779
	H5621	H	0.598619	-0.035247	0.610904
	H5622	H	0.579342	0.534326	0.571165
	H5623	H	0.594824	0.534054	0.560154
	Al5624	Al	0.562525	-0.500024	0.687581
	Al5625	Al	0.562484	-0.249814	0.687621
	Al5626	Al	0.493432	-0.250842	0.660042
	Al5627	Al	0.493446	-0.500047	0.660038
	O5628	O	0.573443	-0.458538	0.701117
	O5629	O	0.561797	-0.375040	0.676237
	O5630	O	0.563285	-0.124861	0.698960
	O5631	O	0.621101	-0.459050	0.700123
	O5632	O	0.553510	-0.459387	0.703747
	O5633	O	0.509120	-0.459417	0.734232
	O5634	O	0.553453	-0.291302	0.703536
	O5635	O	0.551596	-0.209357	0.674204
	O5636	O	0.503939	-0.209589	0.674987
	O5637	O	0.573424	-0.290387	0.700999
	O5638	O	0.571534	-0.208708	0.671504
	O5639	O	0.615972	-0.209122	0.641130
	O5640	O	0.508996	-0.291273	0.733864
	O5641	O	0.551600	-0.041069	0.674208
	O5642	O	0.503920	-0.041126	0.674887
	O5643	O	0.615959	-0.041028	0.641105
	O5644	O	0.571540	-0.040634	0.671413
	O5645	O	0.621084	-0.290550	0.700270
	O5646	O	0.499201	-0.125061	0.738765
	O5647	O	0.625733	-0.375059	0.636446
	C5648	C	0.601973	-0.284498	0.700161
	C5649	C	0.606809	-0.374685	0.699617
	C5650	C	0.601979	-0.464521	0.700235
	C5651	C	0.592552	-0.464577	0.701292
	C5652	C	0.587716	-0.374507	0.701707
	C5653	C	0.592548	-0.284685	0.701221
	C5654	C	0.577467	-0.374502	0.701324
	C5655	C	0.617054	-0.374841	0.699970
	C5656	C	0.549800	-0.375386	0.706503
	C5657	C	0.540337	-0.375474	0.713428
	C5658	C	0.535735	-0.285733	0.716188
	C5659	C	0.526801	-0.285488	0.721530
	C5660	C	0.522189	-0.375148	0.724313
	C5661	C	0.526773	-0.464952	0.721521
	C5662	C	0.535708	-0.465139	0.716185
	C5663	C	0.512745	-0.375345	0.731273
	C5664	C	0.547540	-0.125246	0.673929
	C5665	C	0.537304	-0.125052	0.673491
	C5666	C	0.532456	-0.035230	0.673959
	C5667	C	0.523017	-0.035332	0.674987
	C5668	C	0.518191	-0.125336	0.675534
	C5669	C	0.523014	-0.215152	0.674787
	C5670	C	0.532457	-0.214958	0.673764
	C5671	C	0.507967	-0.125377	0.675202
	C5672	C	0.575221	-0.124759	0.668686
	C5673	C	0.584688	-0.124773	0.661846
	C5674	C	0.589264	-0.214601	0.658923
	C5675	C	0.598196	-0.214720	0.653634
	C5676	C	0.602816	-0.125164	0.650860
	C5677	C	0.598204	-0.035429	0.653640
	C5678	C	0.589288	-0.035166	0.658987
	C5679	C	0.612287	-0.125147	0.643949
	H5680	H	0.601643	-0.284691	0.651698
	H5681	H	0.585820	-0.284712	0.660952
	H5682	H	0.605589	-0.214384	0.699698
	H5683	H	0.588892	-0.214741	0.701551
	H5684	H	0.560939	-0.375025	0.663998
	H5685	H	0.564291	-0.124742	0.711081
	H5686	H	0.498165	-0.124816	0.726603
	H5687	H	0.626870	-0.374758	0.648558
	H5688	H	0.536101	-0.284874	0.673336
	H5689	H	0.519372	-0.285084	0.675104
	H5690	H	0.523386	-0.214870	0.723559
	H5691	H	0.539171	-0.215592	0.714149
	H5692	H	0.519388	0.034785	0.675460
	H5693	H	0.536097	0.034960	0.673692
	H5694	H	0.539106	-0.535683	0.714196
	H5695	H	0.523317	-0.534719	0.723544
	H5696	H	0.588903	-0.534401	0.701692
	H5697	H	0.605650	-0.534254	0.699850
	H5698	H	0.585843	0.035046	0.661048
	H5699	H	0.601682	0.034392	0.651747
	Al5700	Al	0.562541	0.000208	0.687576
	Al5701	Al	0.562528	0.249657	0.687638
	Al5702	Al	0.493402	0.249033	0.659917
	Al5703	Al	0.493415	-0.000079	0.659996
	O5704	O	0.573424	0.040858	0.701028
	O5705	O	0.561800	0.124910	0.676222
	O5706	O	0.563290	0.374827	0.698952
	O5707	O	0.621145	0.040863	0.700043
	O5708	O	0.553445	0.040852	0.703624
	O5709	O	0.509092	0.040385	0.734039
	O5710	O	0.553456	0.208770	0.703659
	O5711	O	0.551640	0.290452	0.674078
	O5712	O	0.503907	0.290630	0.674900
	O5713	O	0.573415	0.208813	0.701136
	O5714	O	0.571601	0.291143	0.671669
	O5715	O	0.615947	0.290910	0.641030
	O5716	O	0.509004	0.208403	0.733887
	O5717	O	0.551616	0.458664	0.674217
	O5718	O	0.503942	0.459052	0.674959
	O5719	O	0.615931	0.458876	0.641106
	O5720	O	0.571566	0.459343	0.671511
	O5721	O	0.621081	0.209369	0.700114
	O5722	O	0.499217	0.374929	0.738771
	O5723	O	0.625748	0.124972	0.636382
	C5724	C	0.601993	0.214401	0.699950
	C5725	C	0.606828	0.124737	0.699431
	C5726	C	0.602020	0.034792	0.700098
	C5727	C	0.592581	0.034810	0.701208
	C5728	C	0.587730	0.124545	0.701654
	C5729	C	0.592547	0.214365	0.701041
	C5730	C	0.577477	0.124881	0.701334
	C5731	C	0.617076	0.124929	0.699802
	C5732	C	0.549778	0.124839	0.706467
	C5733	C	0.540355	0.124671	0.713463
	C5734	C	0.535758	0.214447	0.716260
	C5735	C	0.526840	0.214647	0.721619
	C5736	C	0.522221	0.124916	0.724379
	C5737	C	0.526824	0.035165	0.721507
	C5738	C	0.535732	0.034979	0.716147
	C5739	C	0.512742	0.124547	0.731199
	C5740	C	0.547581	0.374459	0.673880
	C5741	C	0.537333	0.374575	0.673458
	C5742	C	0.532497	0.464639	0.673930
	C5743	C	0.523064	0.464458	0.674940
	C5744	C	0.518222	0.374496	0.675501
	C5745	C	0.523052	0.284608	0.674913
	C5746	C	0.532483	0.284628	0.673874
	C5747	C	0.507973	0.374761	0.675218
	C5748	C	0.575272	0.375278	0.668800
	C5749	C	0.584697	0.375335	0.661863
	C5750	C	0.589273	0.285531	0.658926
	C5751	C	0.598187	0.285272	0.653534
	C5752	C	0.602812	0.374895	0.650819
	C5753	C	0.598217	0.464719	0.653594
	C5754	C	0.589314	0.464931	0.658988
	C5755	C	0.612251	0.374775	0.643848
	H5756	H	0.601617	0.215279	0.651442
	H5757	H	0.585807	0.215374	0.660955
	H5758	H	0.605610	0.284327	0.699440
	H5759	H	0.588925	0.284574	0.701431
	H5760	H	0.560767	0.125106	0.664083
	H5761	H	0.564237	0.375053	0.711098
	H5762	H	0.498044	0.375239	0.726683
	H5763	H	0.626669	0.125139	0.648534
	H5764	H	0.536139	0.214793	0.673391
	H5765	H	0.519431	0.214402	0.675295
	H5766	H	0.523396	0.284499	0.723616
	H5767	H	0.539185	0.284606	0.714118
	H5768	H	0.519402	0.534572	0.675375
	H5769	H	0.536112	0.534811	0.673528
	H5770	H	0.539145	-0.035026	0.713952
	H5771	H	0.523376	-0.034753	0.723449
	H5772	H	0.588948	-0.035319	0.701717
	H5773	H	0.605645	-0.035325	0.699730
	H5774	H	0.585905	0.535228	0.661054
	H5775	H	0.601674	0.534485	0.651552
	Al5776	Al	0.569092	-0.499199	0.777551
	Al5777	Al	0.569098	-0.250403	0.777568
	Al5778	Al	0.500005	-0.250033	0.750059
	Al5779	Al	0.500000	-0.500119	0.750142
	O5780	O	0.578644	-0.458983	0.794504
	O5781	O	0.568691	-0.374858	0.766301
	O5782	O	0.569198	-0.125272	0.788962
	O5783	O	0.616300	-0.458913	0.856346
	O5784	O	0.559589	-0.458662	0.792561
	O5785	O	0.516050	-0.459708	0.825453
	O5786	O	0.559586	-0.290467	0.792587
	O5787	O	0.558614	-0.208729	0.762572
	O5788	O	0.510912	-0.209324	0.763504
	O5789	O	0.578622	-0.291392	0.794606
	O5790	O	0.578484	-0.209091	0.762841
	O5791	O	0.622065	-0.209181	0.730191
	O5792	O	0.515976	-0.291611	0.825341
	O5793	O	0.558592	-0.040598	0.762790
	O5794	O	0.510903	-0.040939	0.763492
	O5795	O	0.622124	-0.040926	0.730301
	O5796	O	0.578533	-0.040630	0.763061
	O5797	O	0.616182	-0.291117	0.856435
	O5798	O	0.506140	-0.125303	0.828766
	O5799	O	0.631600	-0.374862	0.726467
	C5800	C	0.601345	-0.286813	0.831249
	C5801	C	0.605144	-0.375456	0.837617
	C5802	C	0.601321	-0.464190	0.831303
	C5803	C	0.593846	-0.464214	0.818967
	C5804	C	0.590008	-0.375464	0.812705
	C5805	C	0.593874	-0.286845	0.818904
	C5806	C	0.581859	-0.375195	0.799603
	C5807	C	0.613105	-0.375059	0.851136
	C5808	C	0.555969	-0.374657	0.795598
	C5809	C	0.546711	-0.374738	0.803026
	C5810	C	0.542194	-0.285226	0.806132
	C5811	C	0.533447	-0.285440	0.812296
	C5812	C	0.528998	-0.375367	0.815478
	C5813	C	0.533510	-0.464940	0.812399
	C5814	C	0.542265	-0.464720	0.806241
	C5815	C	0.519688	-0.375438	0.822667
	C5816	C	0.554532	-0.124748	0.762464
	C5817	C	0.544296	-0.124965	0.762135
	C5818	C	0.539457	-0.035200	0.762697
	C5819	C	0.530013	-0.035310	0.763729
	C5820	C	0.525180	-0.125223	0.764280
	C5821	C	0.530030	-0.215012	0.763839
	C5822	C	0.539460	-0.214849	0.762763
	C5823	C	0.514952	-0.125132	0.763761
	C5824	C	0.582184	-0.124776	0.760188
	C5825	C	0.591463	-0.124888	0.752986
	C5826	C	0.595932	-0.214642	0.749781
	C5827	C	0.604696	-0.214888	0.743644
	C5828	C	0.609189	-0.125086	0.740563
	C5829	C	0.604722	-0.035333	0.743816
	C5830	C	0.595962	-0.035119	0.749964
	C5831	C	0.618459	-0.125083	0.733188
	H5832	H	0.608048	-0.284945	0.741215
	H5833	H	0.592517	-0.284160	0.752129
	H5834	H	0.604250	-0.217921	0.836024
	H5835	H	0.591021	-0.218020	0.814105
	H5836	H	0.567762	-0.374744	0.754216
	H5837	H	0.569225	-0.125622	0.801148
	H5838	H	0.505253	-0.125508	0.816629
	H5839	H	0.631448	-0.375783	0.738561
	H5840	H	0.543100	-0.284822	0.762475
	H5841	H	0.526391	-0.285110	0.764381
	H5842	H	0.530035	-0.215755	0.814576
	H5843	H	0.545528	-0.215225	0.803601
	H5844	H	0.526368	0.034786	0.764153
	H5845	H	0.543078	0.034840	0.762331
	H5846	H	0.545644	-0.534300	0.803876
	H5847	H	0.530120	-0.534561	0.814785
	H5848	H	0.590941	-0.533075	0.814205
	H5849	H	0.604187	-0.533048	0.836071
	H5850	H	0.592606	0.034681	0.752389
	H5851	H	0.608140	0.034364	0.741479
	Al5852	Al	0.569053	0.000727	0.777700
	Al5853	Al	0.569074	0.249404	0.777596
	Al5854	Al	0.499988	0.249961	0.750099
	Al5855	Al	0.500029	0.000242	0.750092
	O5856	O	0.578583	0.041014	0.794614
	O5857	O	0.568665	0.124960	0.766349
	O5858	O	0.569159	0.375334	0.788882
	O5859	O	0.616259	0.040833	0.856270
	O5860	O	0.559563	0.041090	0.792667
	O5861	O	0.515967	0.040748	0.825274
	O5862	O	0.559585	0.209382	0.792727
	O5863	O	0.558630	0.290889	0.762572
	O5864	O	0.510929	0.290623	0.763364
	O5865	O	0.578639	0.208767	0.794491
	O5866	O	0.578513	0.290860	0.762916
	O5867	O	0.622109	0.290358	0.730236
	O5868	O	0.515999	0.208978	0.825423
	O5869	O	0.558615	0.459385	0.762648
	O5870	O	0.510927	0.458818	0.763595
	O5871	O	0.622064	0.458727	0.730144
	O5872	O	0.578523	0.459180	0.762960
	O5873	O	0.616247	0.208878	0.856287
	O5874	O	0.506175	0.375037	0.828907
	O5875	O	0.631695	0.125048	0.726383
	C5876	C	0.601313	0.213716	0.831272
	C5877	C	0.605111	0.124647	0.837590
	C5878	C	0.601306	0.035807	0.831256
	C5879	C	0.593841	0.036105	0.818918
	C5880	C	0.590017	0.125133	0.812661
	C5881	C	0.593859	0.213907	0.818949
	C5882	C	0.581832	0.124847	0.799586
	C5883	C	0.613115	0.124815	0.851073
	C5884	C	0.555965	0.125280	0.795639
	C5885	C	0.546700	0.125158	0.803075
	C5886	C	0.542199	0.214922	0.806184
	C5887	C	0.533443	0.214675	0.812266
	C5888	C	0.528969	0.125057	0.815414
	C5889	C	0.533499	0.035405	0.812428
	C5890	C	0.542242	0.035462	0.806310
	C5891	C	0.519645	0.124821	0.822587
	C5892	C	0.554573	0.375117	0.762386
	C5893	C	0.544334	0.374985	0.762128
	C5894	C	0.539480	0.464858	0.762687
	C5895	C	0.530053	0.464727	0.763677
	C5896	C	0.525223	0.374593	0.764104
	C5897	C	0.530071	0.284632	0.763574
	C5898	C	0.539506	0.284926	0.762557
	C5899	C	0.514980	0.374694	0.763755
	C5900	C	0.582201	0.374968	0.760192
	C5901	C	0.591498	0.374956	0.753039
	C5902	C	0.596000	0.285201	0.750043
	C5903	C	0.604745	0.284993	0.743889
	C5904	C	0.609221	0.374528	0.740643
	C5905	C	0.604720	0.464271	0.743722
	C5906	C	0.595974	0.464430	0.749856
	C5907	C	0.618488	0.374588	0.733157
	H5908	H	0.608135	0.215402	0.741591
	H5909	H	0.592608	0.215597	0.752476
	H5910	H	0.604200	0.282605	0.836080
	H5911	H	0.590963	0.283130	0.814171
	H5912	H	0.567686	0.124288	0.754240
	H5913	H	0.569341	0.375384	0.801083
	H5914	H	0.505257	0.374890	0.816743
	H5915	H	0.631733	0.124329	0.738585
	H5916	H	0.543177	0.215027	0.762024
	H5917	H	0.526416	0.214697	0.763887
	H5918	H	0.530005	0.284191	0.814567
	H5919	H	0.545552	0.284710	0.803674
	H5920	H	0.526393	0.534419	0.764102
	H5921	H	0.543095	0.534814	0.762219
	H5922	H	0.545647	-0.034181	0.803931
	H5923	H	0.530132	-0.034149	0.814832
	H5924	H	0.590930	-0.032776	0.814208
	H5925	H	0.604184	-0.033170	0.836072
	H5926	H	0.592559	0.534085	0.752099
	H5927	H	0.608069	0.534071	0.741242
	Al5928	Al	0.562496	-0.500108	0.937524
	Al5929	Al	0.562478	-0.250154	0.937577
	Al5930	Al	0.506571	-0.249714	0.839980
	Al5931	Al	0.506583	-0.500222	0.840062
	O5932	O	0.571245	-0.459318	0.956276
	O5933	O	0.562937	-0.375060	0.926556
	O5934	O	0.562001	-0.125195	0.948573
	O5935	O	0.608894	-0.459092	1.017988
	O5936	O	0.552437	-0.459206	0.950501
	O5937	O	0.510049	-0.458828	0.986977
	O5938	O	0.552466	-0.290880	0.950634
	O5939	O	0.553712	-0.208776	0.918872
	O5940	O	0.516128	-0.208819	0.856965
	O5941	O	0.571206	-0.291211	0.956258
	O5942	O	0.572535	-0.209710	0.924429
	O5943	O	0.614955	-0.209133	0.888176
	O5944	O	0.510070	-0.290615	0.986956
	O5945	O	0.553694	-0.040924	0.918910
	O5946	O	0.516111	-0.041091	0.856852
	O5947	O	0.614924	-0.040932	0.888064
	O5948	O	0.572516	-0.041404	0.924421
	O5949	O	0.608864	-0.291143	1.018072
	O5950	O	0.500470	-0.125209	0.988979
	O5951	O	0.624522	-0.375004	0.886124
	C5952	C	0.593650	-0.286104	0.993641
	C5953	C	0.597552	-0.375318	0.999777
	C5954	C	0.593681	-0.464484	0.993543
	C5955	C	0.586207	-0.464450	0.981219
	C5956	C	0.582382	-0.375169	0.974908
	C5957	C	0.586169	-0.286014	0.981342
	C5958	C	0.574383	-0.375172	0.961410
	C5959	C	0.605658	-0.375222	1.012943
	C5960	C	0.548873	-0.375123	0.953560
	C5961	C	0.539805	-0.375109	0.961481
	C5962	C	0.535477	-0.285914	0.965028
	C5963	C	0.527001	-0.285758	0.972234
	C5964	C	0.522702	-0.374902	0.976011
	C5965	C	0.527017	-0.464311	0.972458
	C5966	C	0.535505	-0.464246	0.965229
	C5967	C	0.513603	-0.374810	0.983934
	C5968	C	0.550566	-0.125023	0.913707
	C5969	C	0.542586	-0.124780	0.900146
	C5970	C	0.538763	-0.036046	0.893779
	C5971	C	0.531301	-0.036019	0.881412
	C5972	C	0.527470	-0.124767	0.875122
	C5973	C	0.531316	-0.213490	0.881426
	C5974	C	0.538783	-0.213563	0.893803
	C5975	C	0.519351	-0.124728	0.861930
	C5976	C	0.576111	-0.125409	0.921439
	C5977	C	0.585162	-0.125582	0.913433
	C5978	C	0.589489	-0.214700	0.909785
	C5979	C	0.597996	-0.214163	0.902620
	C5980	C	0.602314	-0.124832	0.899058
	C5981	C	0.597996	-0.035709	0.902763
	C5982	C	0.589505	-0.036242	0.909945
	C5983	C	0.611390	-0.124795	0.891125
	H5984	H	0.601304	-0.282948	0.899771
	H5985	H	0.586204	-0.283908	0.912650
	H5986	H	0.596508	-0.216860	0.998548
	H5987	H	0.583234	-0.216978	0.976614
	H5988	H	0.563313	-0.375345	0.914549
	H5989	H	0.561661	-0.124244	0.960633
	H5990	H	0.500997	-0.124972	0.976897
	H5991	H	0.624042	-0.374873	0.898144
	H5992	H	0.541668	-0.282440	0.898627
	H5993	H	0.528476	-0.282694	0.876594
	H5994	H	0.523689	-0.216618	0.975002
	H5995	H	0.538713	-0.216823	0.962099
	H5996	H	0.528422	0.032794	0.876560
	H5997	H	0.541630	0.032811	0.898622
	H5998	H	0.538833	-0.532766	0.962394
	H5999	H	0.523708	-0.533312	0.975383
	H6000	H	0.583317	-0.533644	0.976432
	H6001	H	0.596554	-0.533585	0.998313
	H6002	H	0.586243	0.032537	0.912993
	H6003	H	0.601273	0.033162	0.900029
	Al6004	Al	0.562472	0.000084	0.937575
	Al6005	Al	0.562472	0.249692	0.937500
	Al6006	Al	0.506556	0.250670	0.840140
	Al6007	Al	0.506527	-0.000698	0.839961
	O6008	O	0.571189	0.040839	0.956197
	O6009	O	0.562998	0.124918	0.926471
	O6010	O	0.561997	0.374826	0.948533
	O6011	O	0.608942	0.040653	1.017783
	O6012	O	0.552432	0.041205	0.950627
	O6013	O	0.510088	0.040675	0.987051
	O6014	O	0.552448	0.209414	0.950644
	O6015	O	0.553752	0.291059	0.918834
	O6016	O	0.516143	0.291054	0.857005
	O6017	O	0.571196	0.208605	0.956209
	O6018	O	0.572532	0.290648	0.924411
	O6019	O	0.614927	0.290880	0.888013
	O6020	O	0.510045	0.208925	0.986849
	O6021	O	0.553800	0.458943	0.918775
	O6022	O	0.516111	0.458941	0.857085
	O6023	O	0.614891	0.458907	0.887960
	O6024	O	0.572559	0.458880	0.924426
	O6025	O	0.608867	0.208641	1.017810
	O6026	O	0.500501	0.374990	0.989067
	O6027	O	0.624467	0.124987	0.885944
	C6028	C	0.593627	0.213347	0.993539
	C6029	C	0.597519	0.124463	0.999712
	C6030	C	0.593649	0.035607	0.993482
	C6031	C	0.586149	0.035706	0.981240
	C6032	C	0.582305	0.124576	0.974965
	C6033	C	0.586124	0.213294	0.981321
	C6034	C	0.574351	0.124714	0.961406
	C6035	C	0.605674	0.124734	1.012781
	C6036	C	0.548858	0.125190	0.953631
	C6037	C	0.539803	0.125009	0.961578
	C6038	C	0.535482	0.214226	0.965208
	C6039	C	0.527008	0.214309	0.972415
	C6040	C	0.522687	0.125085	0.976044
	C6041	C	0.527009	0.035929	0.972431
	C6042	C	0.535490	0.035809	0.965238
	C6043	C	0.513615	0.124879	0.983932
	C6044	C	0.550628	0.374972	0.913605
	C6045	C	0.542665	0.374816	0.900063
	C6046	C	0.538823	0.463410	0.893754
	C6047	C	0.531359	0.463327	0.881457
	C6048	C	0.527529	0.374711	0.875146
	C6049	C	0.531411	0.285996	0.881371
	C6050	C	0.538873	0.285980	0.893687
	C6051	C	0.519370	0.374601	0.862089
	C6052	C	0.576114	0.374747	0.921440
	C6053	C	0.585169	0.374778	0.913477
	C6054	C	0.589490	0.285695	0.909772
	C6055	C	0.597971	0.285843	0.902597
	C6056	C	0.602288	0.374901	0.899004
	C6057	C	0.597955	0.463989	0.902616
	C6058	C	0.589464	0.463968	0.909811
	C6059	C	0.611327	0.374881	0.890964
	H6060	H	0.601236	0.216911	0.899707
	H6061	H	0.586179	0.216339	0.912566
	H6062	H	0.596514	0.282583	0.998292
	H6063	H	0.583218	0.282419	0.976538
	H6064	H	0.563489	0.124428	0.914376
	H6065	H	0.561690	0.375703	0.960691
	H6066	H	0.501018	0.375391	0.977003
	H6067	H	0.623962	0.125592	0.897997
	H6068	H	0.541781	0.217350	0.898449
	H6069	H	0.528529	0.217192	0.876616
	H6070	H	0.523693	0.283126	0.975211
	H6071	H	0.538790	0.283058	0.962315
	H6072	H	0.528435	0.532209	0.876744
	H6073	H	0.541686	0.532176	0.898567
	H6074	H	0.538760	-0.033191	0.962434
	H6075	H	0.523696	-0.032842	0.975310
	H6076	H	0.583241	-0.033035	0.976428
	H6077	H	0.596583	-0.033416	0.998200
	H6078	H	0.586149	0.532627	0.912644
	H6079	H	0.601251	0.532656	0.899748
	Al6080	Al	0.687474	-0.499634	0.062483
	Al6081	Al	0.687500	-0.249441	0.062445
	Al6082	Al	0.618426	-0.250629	0.034952
	Al6083	Al	0.618449	-0.499696	0.034881
	O6084	O	0.698444	-0.458653	0.075706
	O6085	O	0.686722	-0.374462	0.051157
	O6086	O	0.688270	-0.124822	0.073841
	O6087	O	0.746119	-0.458976	0.075086
	O6088	O	0.678397	-0.458636	0.078487
	O6089	O	0.634083	-0.459075	0.109073
	O6090	O	0.678420	-0.290379	0.078477
	O6091	O	0.676596	-0.208899	0.048907
	O6092	O	0.628912	-0.209248	0.049845
	O6093	O	0.698415	-0.290508	0.075760
	O6094	O	0.696517	-0.208797	0.046334
	O6095	O	0.740930	-0.208279	0.016011
	O6096	O	0.634028	-0.291060	0.108944
	O6097	O	0.676600	-0.040552	0.049063
	O6098	O	0.628917	-0.040841	0.049797
	O6099	O	0.740870	-0.040320	0.015869
	O6100	O	0.696476	-0.040569	0.046260
	O6101	O	0.746189	-0.290576	0.074936
	O6102	O	0.624209	-0.125127	0.113756
	O6103	O	0.750719	-0.374713	0.011278
	C6104	C	0.727043	-0.284469	0.074986
	C6105	C	0.731877	-0.374402	0.074492
	C6106	C	0.727052	-0.464270	0.075058
	C6107	C	0.717610	-0.464244	0.076028
	C6108	C	0.712745	-0.374434	0.076433
	C6109	C	0.717591	-0.284605	0.075979
	C6110	C	0.702494	-0.374499	0.075989
	C6111	C	0.742101	-0.374627	0.074752
	C6112	C	0.674713	-0.374413	0.081305
	C6113	C	0.665281	-0.374455	0.088220
	C6114	C	0.660691	-0.284742	0.091097
	C6115	C	0.651778	-0.284973	0.096502
	C6116	C	0.647164	-0.374769	0.099206
	C6117	C	0.651785	-0.464477	0.096414
	C6118	C	0.660695	-0.464204	0.091002
	C6119	C	0.637730	-0.374970	0.106170
	C6120	C	0.672563	-0.124736	0.048696
	C6121	C	0.662320	-0.125050	0.048187
	C6122	C	0.657463	-0.035164	0.048719
	C6123	C	0.648035	-0.035210	0.049727
	C6124	C	0.643190	-0.125102	0.050249
	C6125	C	0.648036	-0.215161	0.049698
	C6126	C	0.657465	-0.215008	0.048682
	C6127	C	0.632956	-0.125175	0.050115
	C6128	C	0.700212	-0.124617	0.043569
	C6129	C	0.709630	-0.124632	0.036532
	C6130	C	0.714232	-0.214345	0.033784
	C6131	C	0.723153	-0.214313	0.028425
	C6132	C	0.727763	-0.124631	0.025670
	C6133	C	0.723139	-0.034980	0.028352
	C6134	C	0.714212	-0.034888	0.033704
	C6135	C	0.737181	-0.124306	0.018650
	H6136	H	0.726565	-0.284369	0.026284
	H6137	H	0.710821	-0.284575	0.035811
	H6138	H	0.730665	-0.214384	0.074538
	H6139	H	0.713956	-0.214908	0.076404
	H6140	H	0.685668	-0.374615	0.039115
	H6141	H	0.689292	-0.125307	0.085976
	H6142	H	0.622928	-0.124899	0.101673
	H6143	H	0.751748	-0.374456	0.023420
	H6144	H	0.661122	-0.284987	0.048202
	H6145	H	0.644392	-0.285141	0.049966
	H6146	H	0.648352	-0.214971	0.098591
	H6147	H	0.664134	-0.214479	0.089037
	H6148	H	0.644390	0.034607	0.050007
	H6149	H	0.661097	0.035114	0.048258
	H6150	H	0.664124	-0.534333	0.088935
	H6151	H	0.648358	-0.534707	0.098441
	H6152	H	0.714006	-0.534481	0.076449
	H6153	H	0.730710	-0.534499	0.074710
	H6154	H	0.710744	0.035088	0.035676
	H6155	H	0.726509	0.035270	0.026129
	Al6156	Al	0.687497	0.000098	0.062485
	Al6157	Al	0.687483	0.250679	0.062460
	Al6158	Al	0.618399	0.249407	0.034779
	Al6159	Al	0.618405	0.000427	0.034828
	O6160	O	0.698439	0.041040	0.075861
	O6161	O	0.686762	0.125422	0.051160
	O6162	O	0.688268	0.375459	0.073889
	O6163	O	0.746137	0.040932	0.075021
	O6164	O	0.678479	0.041258	0.078613
	O6165	O	0.634050	0.041011	0.108955
	O6166	O	0.678420	0.209322	0.078499
	O6167	O	0.676612	0.291403	0.048948
	O6168	O	0.628937	0.290641	0.049608
	O6169	O	0.698411	0.209264	0.075818
	O6170	O	0.696491	0.291102	0.046393
	O6171	O	0.740885	0.291541	0.015935
	O6172	O	0.634078	0.208982	0.109001
	O6173	O	0.676618	0.459775	0.049007
	O6174	O	0.628897	0.458986	0.049882
	O6175	O	0.740873	0.459662	0.015877
	O6176	O	0.696434	0.459065	0.046252
	O6177	O	0.746130	0.209385	0.075117
	O6178	O	0.624258	0.374864	0.113749
	O6179	O	0.750711	0.125667	0.011257
	C6180	C	0.726996	0.214867	0.075034
	C6181	C	0.731851	0.125066	0.074442
	C6182	C	0.726994	0.035165	0.074971
	C6183	C	0.717570	0.035305	0.076002
	C6184	C	0.712723	0.125202	0.076490
	C6185	C	0.717571	0.215093	0.076074
	C6186	C	0.702474	0.125252	0.076103
	C6187	C	0.742102	0.125121	0.074787
	C6188	C	0.674760	0.125220	0.081315
	C6189	C	0.665310	0.125153	0.088215
	C6190	C	0.660673	0.214745	0.090916
	C6191	C	0.651771	0.214773	0.096336
	C6192	C	0.647163	0.125090	0.099179
	C6193	C	0.651783	0.035428	0.096398
	C6194	C	0.660686	0.035461	0.090987
	C6195	C	0.637740	0.124982	0.106175
	C6196	C	0.672566	0.375532	0.048721
	C6197	C	0.662325	0.375494	0.048257
	C6198	C	0.657483	0.465285	0.048864
	C6199	C	0.648061	0.465123	0.049937
	C6200	C	0.643220	0.375091	0.050395
	C6201	C	0.648064	0.285394	0.049840
	C6202	C	0.657497	0.285493	0.048784
	C6203	C	0.632979	0.374896	0.050075
	C6204	C	0.700149	0.375108	0.043496
	C6205	C	0.709612	0.375416	0.036584
	C6206	C	0.714205	0.285732	0.033775
	C6207	C	0.723138	0.285814	0.028436
	C6208	C	0.727713	0.375613	0.025551
	C6209	C	0.723114	0.465343	0.028393
	C6210	C	0.714180	0.465349	0.033729
	C6211	C	0.737193	0.375507	0.018727
	H6212	H	0.726567	0.215619	0.026512
	H6213	H	0.710764	0.215725	0.035827
	H6214	H	0.730652	0.284807	0.074542
	H6215	H	0.713955	0.285299	0.076356
	H6216	H	0.685746	0.125361	0.039024
	H6217	H	0.689279	0.375258	0.086055
	H6218	H	0.623239	0.375133	0.101635
	H6219	H	0.751708	0.125884	0.023302
	H6220	H	0.661113	0.215299	0.048301
	H6221	H	0.644429	0.215497	0.050175
	H6222	H	0.648342	0.284881	0.098465
	H6223	H	0.664090	0.284917	0.088830
	H6224	H	0.644421	0.534991	0.050268
	H6225	H	0.661133	0.535173	0.048386
	H6226	H	0.664140	-0.034567	0.088961
	H6227	H	0.648376	-0.034739	0.098544
	H6228	H	0.713886	-0.034516	0.076334
	H6229	H	0.730605	-0.034860	0.074453
	H6230	H	0.710770	0.535693	0.035791
	H6231	H	0.726549	0.535444	0.026391
	Al6232	Al	0.694121	-0.499120	0.152646
	Al6233	Al	0.694101	-0.250289	0.152673
	Al6234	Al	0.625010	-0.249992	0.125129
	Al6235	Al	0.625036	-0.499985	0.125102
	O6236	O	0.703559	-0.458607	0.169807
	O6237	O	0.693757	-0.374576	0.141420
	O6238	O	0.694215	-0.124763	0.163972
	O6239	O	0.741333	-0.458588	0.231362
	O6240	O	0.684630	-0.459131	0.167812
	O6241	O	0.640986	-0.458435	0.200278
	O6242	O	0.684630	-0.290998	0.167771
	O6243	O	0.683646	-0.209116	0.137654
	O6244	O	0.635978	-0.209039	0.138324
	O6245	O	0.703663	-0.290591	0.169595
	O6246	O	0.703491	-0.208805	0.137920
	O6247	O	0.747052	-0.208666	0.105138
	O6248	O	0.640990	-0.290317	0.200222
	O6249	O	0.683639	-0.040492	0.137663
	O6250	O	0.635953	-0.040827	0.138390
	O6251	O	0.747060	-0.040531	0.105114
	O6252	O	0.703439	-0.040692	0.137810
	O6253	O	0.741308	-0.290571	0.231336
	O6254	O	0.631170	-0.124406	0.203849
	O6255	O	0.756615	-0.374568	0.101370
	C6256	C	0.726397	-0.285526	0.206179
	C6257	C	0.730221	-0.374588	0.212527
	C6258	C	0.726401	-0.463574	0.206246
	C6259	C	0.718909	-0.463774	0.193958
	C6260	C	0.715041	-0.374712	0.187730
	C6261	C	0.718903	-0.285716	0.193909
	C6262	C	0.706867	-0.374745	0.174669
	C6263	C	0.738175	-0.374600	0.226098
	C6264	C	0.681025	-0.375080	0.170742
	C6265	C	0.671735	-0.374840	0.178129
	C6266	C	0.667238	-0.285217	0.181197
	C6267	C	0.658475	-0.285078	0.187225
	C6268	C	0.653980	-0.374657	0.190354
	C6269	C	0.658500	-0.464400	0.187424
	C6270	C	0.667258	-0.464489	0.181381
	C6271	C	0.644668	-0.374389	0.197527
	C6272	C	0.679612	-0.124805	0.137418
	C6273	C	0.669380	-0.124688	0.137132
	C6274	C	0.664551	-0.034736	0.137770
	C6275	C	0.655113	-0.034830	0.138744
	C6276	C	0.650250	-0.124678	0.139181
	C6277	C	0.655088	-0.214563	0.138641
	C6278	C	0.664522	-0.214573	0.137666
	C6279	C	0.640015	-0.124833	0.138634
	C6280	C	0.707146	-0.124823	0.135081
	C6281	C	0.716451	-0.124591	0.127963
	C6282	C	0.720939	-0.214179	0.124883
	C6283	C	0.729695	-0.214431	0.118759
	C6284	C	0.734189	-0.124787	0.115597
	C6285	C	0.729702	-0.035143	0.118760
	C6286	C	0.720952	-0.035031	0.124879
	C6287	C	0.743433	-0.124868	0.108086
	H6288	H	0.733043	-0.284271	0.116299
	H6289	H	0.717534	-0.283776	0.127157
	H6290	H	0.729275	-0.216708	0.210957
	H6291	H	0.716020	-0.216720	0.189047
	H6292	H	0.692892	-0.373998	0.129266
	H6293	H	0.694109	-0.124167	0.176124
	H6294	H	0.630379	-0.123958	0.191696
	H6295	H	0.756435	-0.373889	0.113569
	H6296	H	0.668165	-0.284640	0.137189
	H6297	H	0.651435	-0.284531	0.138894
	H6298	H	0.655066	-0.215497	0.189552
	H6299	H	0.670643	-0.215867	0.178817
	H6300	H	0.651469	0.034947	0.139113
	H6301	H	0.668202	0.035243	0.137440
	H6302	H	0.670666	-0.534015	0.179122
	H6303	H	0.655137	-0.533665	0.189960
	H6304	H	0.716024	-0.533022	0.189197
	H6305	H	0.729293	-0.532603	0.211051
	H6306	H	0.717570	0.034460	0.127226
	H6307	H	0.733077	0.034550	0.116319
	Al6308	Al	0.694104	0.001039	0.152611
	Al6309	Al	0.694102	0.250098	0.152463
	Al6310	Al	0.625019	0.249981	0.125059
	Al6311	Al	0.625049	0.000178	0.125047
	O6312	O	0.703666	0.041041	0.169429
	O6313	O	0.693690	0.125437	0.141323
	O6314	O	0.694221	0.375250	0.163796
	O6315	O	0.741231	0.041582	0.231366
	O6316	O	0.684671	0.042400	0.167809
	O6317	O	0.641075	0.041336	0.200574
	O6318	O	0.684543	0.210376	0.167409
	O6319	O	0.683641	0.291605	0.137537
	O6320	O	0.635909	0.290868	0.138568
	O6321	O	0.703575	0.208995	0.169588
	O6322	O	0.703544	0.291135	0.137793
	O6323	O	0.747102	0.291100	0.105113
	O6324	O	0.641061	0.209788	0.200408
	O6325	O	0.683621	0.460029	0.137621
	O6326	O	0.635940	0.459242	0.138476
	O6327	O	0.747145	0.459310	0.105282
	O6328	O	0.703581	0.459556	0.137953
	O6329	O	0.741224	0.209675	0.231320
	O6330	O	0.631223	0.375355	0.203855
	O6331	O	0.756628	0.124906	0.101359
	C6332	C	0.726320	0.214033	0.206224
	C6333	C	0.730130	0.125277	0.212592
	C6334	C	0.726301	0.036133	0.206344
	C6335	C	0.718823	0.036023	0.194031
	C6336	C	0.714976	0.124920	0.187720
	C6337	C	0.718834	0.213909	0.193932
	C6338	C	0.706843	0.125034	0.174541
	C6339	C	0.738078	0.125564	0.226170
	C6340	C	0.680997	0.126127	0.170585
	C6341	C	0.671747	0.125876	0.178137
	C6342	C	0.667221	0.215532	0.181267
	C6343	C	0.658488	0.215496	0.187442
	C6344	C	0.654035	0.125686	0.190580
	C6345	C	0.658564	0.036140	0.187571
	C6346	C	0.667295	0.036048	0.181391
	C6347	C	0.644732	0.125570	0.197743
	C6348	C	0.679568	0.375838	0.137287
	C6349	C	0.669331	0.375363	0.136996
	C6350	C	0.664486	0.465267	0.137579
	C6351	C	0.655062	0.465178	0.138651
	C6352	C	0.650220	0.375171	0.139121
	C6353	C	0.655079	0.285298	0.138714
	C6354	C	0.664494	0.285388	0.137649
	C6355	C	0.639973	0.375091	0.138805
	C6356	C	0.707221	0.375537	0.135098
	C6357	C	0.716498	0.375375	0.127799
	C6358	C	0.720959	0.285824	0.124566
	C6359	C	0.729693	0.285706	0.118438
	C6360	C	0.734221	0.375402	0.115445
	C6361	C	0.729756	0.465058	0.118706
	C6362	C	0.721017	0.465025	0.124846
	C6363	C	0.743499	0.375361	0.108074
	H6364	H	0.733052	0.216284	0.115940
	H6365	H	0.717526	0.216395	0.126873
	H6366	H	0.729210	0.283003	0.210992
	H6367	H	0.715942	0.282807	0.189120
	H6368	H	0.692711	0.125598	0.129177
	H6369	H	0.694108	0.375199	0.175982
	H6370	H	0.630327	0.376022	0.191729
	H6371	H	0.756602	0.125626	0.113564
	H6372	H	0.668126	0.215525	0.137244
	H6373	H	0.651412	0.215385	0.139115
	H6374	H	0.655060	0.285253	0.189780
	H6375	H	0.670568	0.285374	0.178713
	H6376	H	0.651429	0.535157	0.139021
	H6377	H	0.668134	0.535095	0.137161
	H6378	H	0.670688	-0.033640	0.178957
	H6379	H	0.655205	-0.033678	0.190034
	H6380	H	0.715925	-0.033022	0.189300
	H6381	H	0.729180	-0.032922	0.211230
	H6382	H	0.717655	0.534662	0.127432
	H6383	H	0.733158	0.534433	0.116385
	Al6384	Al	0.687478	-0.499758	0.312481
	Al6385	Al	0.687471	-0.250148	0.312635
	Al6386	Al	0.631623	-0.249029	0.215112
	Al6387	Al	0.631585	-0.499948	0.215068
	O6388	O	0.696186	-0.458887	0.331258
	O6389	O	0.688012	-0.374865	0.301512
	O6390	O	0.687029	-0.124924	0.323625
	O6391	O	0.733868	-0.458953	0.393123
	O6392	O	0.677423	-0.458964	0.325617
	O6393	O	0.635003	-0.458990	0.361819
	O6394	O	0.677440	-0.290850	0.325657
	O6395	O	0.678740	-0.208851	0.293932
	O6396	O	0.641171	-0.208863	0.231985
	O6397	O	0.696205	-0.291035	0.331309
	O6398	O	0.697544	-0.209464	0.299482
	O6399	O	0.739980	-0.208905	0.263066
	O6400	O	0.635047	-0.290441	0.361932
	O6401	O	0.678812	-0.040917	0.293841
	O6402	O	0.641135	-0.040989	0.232118
	O6403	O	0.739898	-0.040466	0.263030
	O6404	O	0.697523	-0.040968	0.299429
	O6405	O	0.733922	-0.291154	0.392906
	O6406	O	0.625558	-0.124889	0.364121
	O6407	O	0.749534	-0.374649	0.261072
	C6408	C	0.718646	-0.286162	0.368579
	C6409	C	0.722517	-0.375207	0.374850
	C6410	C	0.718632	-0.464153	0.368652
	C6411	C	0.711158	-0.463969	0.356343
	C6412	C	0.707337	-0.375042	0.349948
	C6413	C	0.711155	-0.286051	0.356300
	C6414	C	0.699355	-0.374958	0.336449
	C6415	C	0.730645	-0.375282	0.387972
	C6416	C	0.673870	-0.374941	0.328635
	C6417	C	0.664781	-0.375007	0.336533
	C6418	C	0.660484	-0.285532	0.340208
	C6419	C	0.652004	-0.285369	0.347391
	C6420	C	0.647650	-0.374552	0.350896
	C6421	C	0.651962	-0.463975	0.347292
	C6422	C	0.660450	-0.464231	0.340120
	C6423	C	0.638596	-0.374839	0.358912
	C6424	C	0.675607	-0.124739	0.288665
	C6425	C	0.667659	-0.124718	0.275125
	C6426	C	0.663847	-0.035801	0.268740
	C6427	C	0.656370	-0.035858	0.256446
	C6428	C	0.652507	-0.124905	0.250202
	C6429	C	0.656362	-0.213886	0.256439
	C6430	C	0.663846	-0.213607	0.268748
	C6431	C	0.644364	-0.124967	0.237079
	C6432	C	0.701106	-0.125235	0.296517
	C6433	C	0.710186	-0.125500	0.288540
	C6434	C	0.714522	-0.214701	0.284915
	C6435	C	0.722991	-0.214520	0.277674
	C6436	C	0.727300	-0.125272	0.274006
	C6437	C	0.722958	-0.036013	0.277577
	C6438	C	0.714488	-0.036260	0.284816
	C6439	C	0.736366	-0.124883	0.266023
	H6440	H	0.726296	-0.283534	0.274800
	H6441	H	0.711253	-0.283724	0.287809
	H6442	H	0.721525	-0.217089	0.373431
	H6443	H	0.708275	-0.216953	0.351528
	H6444	H	0.688695	-0.374865	0.289520
	H6445	H	0.686542	-0.124349	0.335656
	H6446	H	0.626181	-0.124857	0.352078
	H6447	H	0.749046	-0.374708	0.273175
	H6448	H	0.666715	-0.282711	0.273588
	H6449	H	0.653452	-0.282915	0.251664
	H6450	H	0.648733	-0.216097	0.350364
	H6451	H	0.663846	-0.216769	0.337509
	H6452	H	0.653479	0.033065	0.251645
	H6453	H	0.666732	0.033025	0.273544
	H6454	H	0.663755	-0.532954	0.337378
	H6455	H	0.648653	-0.532983	0.350171
	H6456	H	0.708267	-0.532805	0.351550
	H6457	H	0.721519	-0.533095	0.373479
	H6458	H	0.711173	0.032769	0.287686
	H6459	H	0.726242	0.033079	0.274688
	Al6460	Al	0.687525	0.000385	0.312563
	Al6461	Al	0.687499	0.250104	0.312474
	Al6462	Al	0.631598	0.250620	0.215030
	Al6463	Al	0.631585	-0.000082	0.215192
	O6464	O	0.696193	0.041505	0.331289
	O6465	O	0.688032	0.125189	0.301495
	O6466	O	0.686980	0.375177	0.323496
	O6467	O	0.733895	0.041928	0.392925
	O6468	O	0.677480	0.040954	0.325655
	O6469	O	0.635087	0.041035	0.362062
	O6470	O	0.677473	0.209122	0.325666
	O6471	O	0.678760	0.290666	0.293788
	O6472	O	0.641118	0.291300	0.232104
	O6473	O	0.696211	0.209633	0.331214
	O6474	O	0.697545	0.291103	0.299426
	O6475	O	0.739991	0.291379	0.263194
	O6476	O	0.635024	0.209455	0.361947
	O6477	O	0.678759	0.458916	0.293793
	O6478	O	0.641162	0.459536	0.231949
	O6479	O	0.739976	0.459529	0.263195
	O6480	O	0.697544	0.459268	0.299485
	O6481	O	0.733877	0.209919	0.392945
	O6482	O	0.625490	0.374966	0.364094
	O6483	O	0.749436	0.125340	0.260997
	C6484	C	0.718708	0.214683	0.368406
	C6485	C	0.722514	0.125759	0.374810
	C6486	C	0.718617	0.036773	0.368667
	C6487	C	0.711120	0.036569	0.356418
	C6488	C	0.707316	0.125504	0.350022
	C6489	C	0.711194	0.214483	0.356171
	C6490	C	0.699350	0.125619	0.336458
	C6491	C	0.730652	0.125956	0.387919
	C6492	C	0.673893	0.125068	0.328606
	C6493	C	0.664831	0.125031	0.336639
	C6494	C	0.660527	0.214411	0.340354
	C6495	C	0.652052	0.214655	0.347573
	C6496	C	0.647703	0.125473	0.351118
	C6497	C	0.652013	0.036049	0.347435
	C6498	C	0.660491	0.035805	0.340191
	C6499	C	0.638609	0.125286	0.358998
	C6500	C	0.675606	0.374874	0.288615
	C6501	C	0.667580	0.375120	0.275175
	C6502	C	0.663774	0.464444	0.268937
	C6503	C	0.656306	0.464591	0.256577
	C6504	C	0.652468	0.375548	0.250264
	C6505	C	0.656333	0.286250	0.256356
	C6506	C	0.663797	0.286173	0.268708
	C6507	C	0.644345	0.375530	0.237071
	C6508	C	0.701116	0.375211	0.296512
	C6509	C	0.710195	0.375276	0.288565
	C6510	C	0.714536	0.286141	0.284915
	C6511	C	0.723024	0.286322	0.277726
	C6512	C	0.727341	0.375390	0.274118
	C6513	C	0.722998	0.464375	0.277756
	C6514	C	0.714517	0.464366	0.284937
	C6515	C	0.736422	0.375397	0.266193
	H6516	H	0.726338	0.217629	0.274866
	H6517	H	0.711234	0.217327	0.287716
	H6518	H	0.721634	0.283887	0.373101
	H6519	H	0.708358	0.283323	0.351220
	H6520	H	0.688535	0.124945	0.289520
	H6521	H	0.686496	0.375272	0.335588
	H6522	H	0.626014	0.375402	0.351997
	H6523	H	0.748996	0.124697	0.273109
	H6524	H	0.666728	0.217105	0.273328
	H6525	H	0.653482	0.217332	0.251432
	H6526	H	0.648768	0.284029	0.350386
	H6527	H	0.663789	0.283452	0.337466
	H6528	H	0.653414	0.533745	0.251778
	H6529	H	0.666685	0.533292	0.273733
	H6530	H	0.663757	-0.033168	0.337184
	H6531	H	0.648660	-0.033110	0.350155
	H6532	H	0.708213	-0.032357	0.351662
	H6533	H	0.721474	-0.032208	0.373526
	H6534	H	0.711204	0.533425	0.287801
	H6535	H	0.726300	0.533369	0.274919
	Al6536	Al	0.680921	-0.500573	0.472423
	Al6537	Al	0.680907	-0.249344	0.472551
	Al6538	Al	0.625001	-0.249561	0.375106
	Al6539	Al	0.624995	-0.499850	0.375050
	O6540	O	0.691374	-0.459309	0.487377
	O6541	O	0.680829	-0.374763	0.461236
	O6542	O	0.681297	-0.125033	0.483832
	O6543	O	0.739102	-0.459320	0.486749
	O6544	O	0.671439	-0.459704	0.487059
	O6545	O	0.627945	-0.459401	0.519985
	O6546	O	0.671516	-0.291344	0.487342
	O6547	O	0.671391	-0.208842	0.455649
	O6548	O	0.633760	-0.208453	0.393798
	O6549	O	0.691380	-0.290714	0.487448
	O6550	O	0.690347	-0.208812	0.457449
	O6551	O	0.733878	-0.208923	0.424397
	O6552	O	0.627823	-0.291121	0.519741
	O6553	O	0.671408	-0.040945	0.455663
	O6554	O	0.633772	-0.040472	0.393799
	O6555	O	0.733918	-0.040799	0.424563
	O6556	O	0.690418	-0.040626	0.457595
	O6557	O	0.739094	-0.291009	0.486548
	O6558	O	0.618283	-0.124657	0.523653
	O6559	O	0.743796	-0.374709	0.421262
	C6560	C	0.719946	-0.285138	0.486359
	C6561	C	0.724798	-0.375106	0.485910
	C6562	C	0.719964	-0.465115	0.486390
	C6563	C	0.710519	-0.465082	0.487403
	C6564	C	0.705674	-0.375081	0.487953
	C6565	C	0.710514	-0.285119	0.487384
	C6566	C	0.695415	-0.374975	0.487669
	C6567	C	0.735057	-0.375159	0.486341
	C6568	C	0.667797	-0.375540	0.489888
	C6569	C	0.658481	-0.375197	0.497047
	C6570	C	0.654031	-0.285493	0.500261
	C6571	C	0.645279	-0.285353	0.506386
	C6572	C	0.640757	-0.375101	0.509481
	C6573	C	0.645238	-0.464904	0.506331
	C6574	C	0.653977	-0.464907	0.500161
	C6575	C	0.631490	-0.375093	0.516957
	C6576	C	0.668175	-0.124855	0.450605
	C6577	C	0.660073	-0.124589	0.437416
	C6578	C	0.656242	-0.035488	0.431149
	C6579	C	0.648768	-0.035339	0.418809
	C6580	C	0.644926	-0.124346	0.412482
	C6581	C	0.648742	-0.213516	0.418771
	C6582	C	0.656210	-0.213513	0.431135
	C6583	C	0.636928	-0.124490	0.399016
	C6584	C	0.693987	-0.124866	0.454556
	C6585	C	0.703253	-0.124576	0.447069
	C6586	C	0.707698	-0.214339	0.443805
	C6587	C	0.716427	-0.214526	0.437542
	C6588	C	0.720931	-0.124867	0.434496
	C6589	C	0.716448	-0.035223	0.437625
	C6590	C	0.707717	-0.034950	0.443858
	C6591	C	0.730243	-0.124856	0.427245
	H6592	H	0.719801	-0.284099	0.435058
	H6593	H	0.704319	-0.284270	0.446194
	H6594	H	0.723587	-0.215016	0.485980
	H6595	H	0.706861	-0.215123	0.487828
	H6596	H	0.680750	-0.374309	0.449009
	H6597	H	0.682263	-0.124793	0.495945
	H6598	H	0.618248	-0.124707	0.511508
	H6599	H	0.744756	-0.374578	0.433397
	H6600	H	0.659078	-0.282358	0.435933
	H6601	H	0.645861	-0.282292	0.413984
	H6602	H	0.641940	-0.215483	0.508905
	H6603	H	0.657442	-0.216076	0.497948
	H6604	H	0.645881	0.033811	0.414061
	H6605	H	0.659141	0.033534	0.435939
	H6606	H	0.657352	-0.534667	0.497776
	H6607	H	0.641868	-0.534359	0.508792
	H6608	H	0.706896	-0.535196	0.487837
	H6609	H	0.723609	-0.535128	0.486019
	H6610	H	0.704336	0.034807	0.446250
	H6611	H	0.719820	0.034550	0.435204
	Al6612	Al	0.680915	-0.000257	0.472698
	Al6613	Al	0.680907	0.250323	0.472354
	Al6614	Al	0.624963	0.250370	0.375079
	Al6615	Al	0.625019	0.000143	0.375068
	O6616	O	0.691427	0.041179	0.487528
	O6617	O	0.680838	0.124697	0.461191
	O6618	O	0.681242	0.374707	0.483517
	O6619	O	0.739116	0.040746	0.486534
	O6620	O	0.671487	0.041146	0.487393
	O6621	O	0.627892	0.041032	0.520021
	O6622	O	0.671415	0.209136	0.487032
	O6623	O	0.671371	0.290770	0.455385
	O6624	O	0.633636	0.290960	0.393939
	O6625	O	0.691400	0.209692	0.487324
	O6626	O	0.690338	0.290928	0.457198
	O6627	O	0.733990	0.291160	0.424715
	O6628	O	0.627819	0.209378	0.519714
	O6629	O	0.671401	0.458664	0.455386
	O6630	O	0.633626	0.458805	0.393911
	O6631	O	0.734037	0.459271	0.424826
	O6632	O	0.690365	0.459198	0.457326
	O6633	O	0.739115	0.209026	0.486547
	O6634	O	0.618282	0.374938	0.523656
	O6635	O	0.743749	0.125270	0.421199
	C6636	C	0.719994	0.215131	0.486372
	C6637	C	0.724819	0.125094	0.485796
	C6638	C	0.719972	0.035181	0.486325
	C6639	C	0.710539	0.035213	0.487401
	C6640	C	0.705710	0.125217	0.487982
	C6641	C	0.710569	0.215095	0.487452
	C6642	C	0.695475	0.125541	0.487677
	C6643	C	0.735065	0.124956	0.486257
	C6644	C	0.667774	0.125243	0.489872
	C6645	C	0.658458	0.125245	0.497095
	C6646	C	0.653947	0.215055	0.500005
	C6647	C	0.645190	0.215132	0.506162
	C6648	C	0.640740	0.125449	0.509487
	C6649	C	0.645241	0.035793	0.506437
	C6650	C	0.653996	0.035675	0.500292
	C6651	C	0.631476	0.125228	0.516917
	C6652	C	0.668159	0.374953	0.450357
	C6653	C	0.659963	0.375119	0.437393
	C6654	C	0.656098	0.464284	0.431126
	C6655	C	0.648580	0.464095	0.418927
	C6656	C	0.644748	0.374907	0.412625
	C6657	C	0.648605	0.285895	0.418926
	C6658	C	0.656107	0.286108	0.431137
	C6659	C	0.636760	0.374954	0.399113
	C6660	C	0.693978	0.375105	0.454357
	C6661	C	0.703276	0.375104	0.446978
	C6662	C	0.707773	0.285561	0.443799
	C6663	C	0.716521	0.285600	0.437692
	C6664	C	0.721018	0.375199	0.434629
	C6665	C	0.716527	0.464738	0.437705
	C6666	C	0.707774	0.464645	0.443825
	C6667	C	0.730352	0.375310	0.427506
	H6668	H	0.719897	0.215895	0.435321
	H6669	H	0.704397	0.215677	0.446206
	H6670	H	0.723651	0.285103	0.486015
	H6671	H	0.706932	0.285269	0.487904
	H6672	H	0.680958	0.124008	0.448990
	H6673	H	0.682054	0.374984	0.495677
	H6674	H	0.618328	0.374942	0.511483
	H6675	H	0.744565	0.125391	0.433302
	H6676	H	0.659044	0.216782	0.435798
	H6677	H	0.645726	0.216859	0.414072
	H6678	H	0.641784	0.284719	0.508417
	H6679	H	0.657298	0.284741	0.497430
	H6680	H	0.645666	0.533012	0.414093
	H6681	H	0.659026	0.533298	0.435855
	H6682	H	0.657389	-0.034002	0.497942
	H6683	H	0.641910	-0.034095	0.508849
	H6684	H	0.706873	-0.034641	0.487745
	H6685	H	0.723604	-0.034870	0.485882
	H6686	H	0.704395	0.534535	0.446290
	H6687	H	0.719928	0.534447	0.435318
	Al6688	Al	0.687457	-0.499991	0.562546
	Al6689	Al	0.687513	-0.249929	0.562463
	Al6690	Al	0.618367	-0.250309	0.534857
	Al6691	Al	0.618360	-0.499494	0.534889
	O6692	O	0.698348	-0.459071	0.575911
	O6693	O	0.686706	-0.374715	0.551193
	O6694	O	0.688244	-0.124555	0.573834
	O6695	O	0.746045	-0.459228	0.575131
	O6696	O	0.678456	-0.458945	0.578674
	O6697	O	0.634039	-0.459066	0.609008
	O6698	O	0.678415	-0.290788	0.578520
	O6699	O	0.676612	-0.208875	0.548984
	O6700	O	0.628893	-0.209265	0.549811
	O6701	O	0.698344	-0.290927	0.576049
	O6702	O	0.696605	-0.209271	0.546509
	O6703	O	0.740954	-0.208902	0.515982
	O6704	O	0.633992	-0.291045	0.608963
	O6705	O	0.676586	-0.040728	0.548973
	O6706	O	0.628845	-0.040759	0.549997
	O6707	O	0.740980	-0.040888	0.516043
	O6708	O	0.696575	-0.041157	0.546481
	O6709	O	0.746071	-0.290693	0.575168
	O6710	O	0.624236	-0.124981	0.613689
	O6711	O	0.750818	-0.374710	0.511390
	C6712	C	0.726933	-0.285004	0.575193
	C6713	C	0.731776	-0.374762	0.574595
	C6714	C	0.726944	-0.464628	0.575106
	C6715	C	0.717510	-0.464618	0.576200
	C6716	C	0.712658	-0.374966	0.576783
	C6717	C	0.717486	-0.285032	0.576276
	C6718	C	0.702405	-0.375066	0.576283
	C6719	C	0.742011	-0.374889	0.574886
	C6720	C	0.674741	-0.374906	0.581358
	C6721	C	0.665308	-0.374430	0.588278
	C6722	C	0.660663	-0.284653	0.590984
	C6723	C	0.651749	-0.284893	0.596392
	C6724	C	0.647158	-0.374741	0.599311
	C6725	C	0.651799	-0.464447	0.596542
	C6726	C	0.660716	-0.464215	0.591177
	C6727	C	0.637708	-0.374992	0.606225
	C6728	C	0.672546	-0.124853	0.548728
	C6729	C	0.662284	-0.124915	0.548353
	C6730	C	0.657441	-0.035090	0.548820
	C6731	C	0.648010	-0.035042	0.549877
	C6732	C	0.643167	-0.124726	0.550512
	C6733	C	0.648001	-0.214620	0.549867
	C6734	C	0.657434	-0.214709	0.548809
	C6735	C	0.632907	-0.124850	0.550146
	C6736	C	0.700268	-0.124980	0.543709
	C6737	C	0.709721	-0.124503	0.536811
	C6738	C	0.714321	-0.214312	0.533983
	C6739	C	0.723240	-0.214461	0.528600
	C6740	C	0.727848	-0.124809	0.525804
	C6741	C	0.723251	-0.034961	0.528573
	C6742	C	0.714312	-0.034728	0.533925
	C6743	C	0.737279	-0.124879	0.518811
	H6744	H	0.726690	-0.284656	0.526594
	H6745	H	0.710917	-0.284461	0.536104
	H6746	H	0.730559	-0.215187	0.574800
	H6747	H	0.713837	-0.215383	0.576684
	H6748	H	0.685653	-0.375192	0.539003
	H6749	H	0.689218	-0.124632	0.585996
	H6750	H	0.623148	-0.125264	0.601481
	H6751	H	0.751857	-0.374217	0.523529
	H6752	H	0.661097	-0.284607	0.548416
	H6753	H	0.644388	-0.284835	0.550295
	H6754	H	0.648261	-0.214937	0.598285
	H6755	H	0.664046	-0.214366	0.588746
	H6756	H	0.644379	0.035076	0.550322
	H6757	H	0.661060	0.035051	0.548425
	H6758	H	0.664173	-0.534284	0.589039
	H6759	H	0.648379	-0.534744	0.598588
	H6760	H	0.713919	-0.534885	0.576553
	H6761	H	0.730585	-0.534780	0.574660
	H6762	H	0.710911	0.035230	0.536059
	H6763	H	0.726672	0.035319	0.526493
	Al6764	Al	0.687470	0.000414	0.562509
	Al6765	Al	0.687477	0.250111	0.562453
	Al6766	Al	0.618384	0.249757	0.534917
	Al6767	Al	0.618404	0.000634	0.534931
	O6768	O	0.698345	0.040942	0.575907
	O6769	O	0.686738	0.125164	0.551140
	O6770	O	0.688259	0.374964	0.573817
	O6771	O	0.746104	0.040799	0.575187
	O6772	O	0.678437	0.041166	0.578584
	O6773	O	0.634043	0.040831	0.608903
	O6774	O	0.678476	0.209126	0.578550
	O6775	O	0.676553	0.290989	0.549014
	O6776	O	0.628832	0.290730	0.549906
	O6777	O	0.698368	0.209160	0.575973
	O6778	O	0.696552	0.291188	0.546453
	O6779	O	0.740952	0.291070	0.515994
	O6780	O	0.634049	0.209012	0.609028
	O6781	O	0.676529	0.459272	0.549104
	O6782	O	0.628802	0.459181	0.549992
	O6783	O	0.740976	0.459109	0.516168
	O6784	O	0.696514	0.459092	0.546444
	O6785	O	0.746074	0.209092	0.575136
	O6786	O	0.624242	0.374907	0.613684
	O6787	O	0.750813	0.124875	0.511298
	C6788	C	0.726932	0.214562	0.575132
	C6789	C	0.731793	0.124862	0.574592
	C6790	C	0.726955	0.034947	0.575214
	C6791	C	0.717514	0.034983	0.576235
	C6792	C	0.712655	0.124860	0.576645
	C6793	C	0.717496	0.214526	0.576117
	C6794	C	0.702402	0.125011	0.576162
	C6795	C	0.742027	0.124940	0.574925
	C6796	C	0.674786	0.125292	0.581453
	C6797	C	0.665336	0.125394	0.588306
	C6798	C	0.660746	0.215167	0.591228
	C6799	C	0.651824	0.214930	0.596544
	C6800	C	0.647204	0.125144	0.599311
	C6801	C	0.651821	0.035388	0.596544
	C6802	C	0.660750	0.035623	0.591229
	C6803	C	0.637733	0.125030	0.606161
	C6804	C	0.672481	0.375063	0.548765
	C6805	C	0.662228	0.375147	0.548317
	C6806	C	0.657371	0.465020	0.548821
	C6807	C	0.647937	0.465349	0.549914
	C6808	C	0.643114	0.375278	0.550502
	C6809	C	0.647976	0.285602	0.550025
	C6810	C	0.657401	0.285303	0.548923
	C6811	C	0.632866	0.375146	0.550178
	C6812	C	0.700209	0.375165	0.543604
	C6813	C	0.709669	0.375267	0.536745
	C6814	C	0.714273	0.285344	0.533886
	C6815	C	0.723197	0.285245	0.528518
	C6816	C	0.727825	0.374992	0.525725
	C6817	C	0.723224	0.464880	0.528586
	C6818	C	0.714290	0.465110	0.533947
	C6819	C	0.737290	0.375068	0.518903
	H6820	H	0.726638	0.214961	0.526594
	H6821	H	0.710839	0.215286	0.535903
	H6822	H	0.730558	0.284630	0.574831
	H6823	H	0.713876	0.284652	0.576509
	H6824	H	0.685903	0.124485	0.539047
	H6825	H	0.689407	0.374870	0.585873
	H6826	H	0.623314	0.375068	0.601609
	H6827	H	0.751957	0.124876	0.523407
	H6828	H	0.661023	0.215276	0.548547
	H6829	H	0.644321	0.215573	0.550478
	H6830	H	0.648325	0.285018	0.598414
	H6831	H	0.664173	0.285388	0.589084
	H6832	H	0.644297	0.535474	0.550295
	H6833	H	0.661005	0.534819	0.548286
	H6834	H	0.664175	-0.034458	0.589104
	H6835	H	0.648327	-0.034758	0.598409
	H6836	H	0.713869	-0.035017	0.576763
	H6837	H	0.730614	-0.035042	0.574965
	H6838	H	0.710884	0.535217	0.536003
	H6839	H	0.726717	0.534935	0.526704
	Al6840	Al	0.694076	-0.499548	0.652502
	Al6841	Al	0.694079	-0.250566	0.652552
	Al6842	Al	0.624993	-0.250138	0.625089
	Al6843	Al	0.624963	-0.500068	0.625037
	O6844	O	0.703631	-0.459189	0.669390
	O6845	O	0.693673	-0.375013	0.641228
	O6846	O	0.694222	-0.125095	0.663839
	O6847	O	0.741223	-0.459044	0.731312
	O6848	O	0.684549	-0.459401	0.667527
	O6849	O	0.641014	-0.458709	0.700479
	O6850	O	0.684647	-0.291168	0.667661
	O6851	O	0.683604	-0.209055	0.637609
	O6852	O	0.635896	-0.209255	0.638488
	O6853	O	0.703620	-0.291136	0.669467
	O6854	O	0.703504	-0.209882	0.637796
	O6855	O	0.747088	-0.209636	0.605278
	O6856	O	0.641044	-0.290513	0.700600
	O6857	O	0.683558	-0.040507	0.637596
	O6858	O	0.635898	-0.040874	0.638444
	O6859	O	0.747066	-0.041367	0.605202
	O6860	O	0.703494	-0.041662	0.637954
	O6861	O	0.741274	-0.291107	0.731200
	O6862	O	0.631130	-0.124901	0.703931
	O6863	O	0.756682	-0.375319	0.601330
	C6864	C	0.726264	-0.285853	0.706258
	C6865	C	0.730109	-0.374965	0.712561
	C6866	C	0.726341	-0.463989	0.706115
	C6867	C	0.718867	-0.464011	0.693814
	C6868	C	0.714971	-0.375058	0.687635
	C6869	C	0.718790	-0.285875	0.693936
	C6870	C	0.706842	-0.375125	0.674489
	C6871	C	0.738110	-0.375070	0.726022
	C6872	C	0.680962	-0.375211	0.670511
	C6873	C	0.671701	-0.374723	0.678015
	C6874	C	0.667239	-0.284990	0.681215
	C6875	C	0.658503	-0.284773	0.687426
	C6876	C	0.654005	-0.374424	0.690545
	C6877	C	0.658470	-0.464263	0.687401
	C6878	C	0.667197	-0.464393	0.681188
	C6879	C	0.644676	-0.374617	0.697765
	C6880	C	0.679535	-0.124981	0.637335
	C6881	C	0.669287	-0.125097	0.637083
	C6882	C	0.664431	-0.035216	0.637627
	C6883	C	0.655001	-0.035175	0.638727
	C6884	C	0.650186	-0.125178	0.639232
	C6885	C	0.655024	-0.215133	0.638672
	C6886	C	0.664459	-0.214989	0.637611
	C6887	C	0.639940	-0.125104	0.638760
	C6888	C	0.707174	-0.125728	0.635114
	C6889	C	0.716469	-0.125426	0.627901
	C6890	C	0.720956	-0.215115	0.624795
	C6891	C	0.729703	-0.214910	0.618656
	C6892	C	0.734179	-0.125253	0.615521
	C6893	C	0.729693	-0.035479	0.618679
	C6894	C	0.720947	-0.035655	0.624839
	C6895	C	0.743449	-0.125345	0.608100
	H6896	H	0.733069	-0.284786	0.616232
	H6897	H	0.717568	-0.284758	0.627163
	H6898	H	0.729151	-0.216717	0.711044
	H6899	H	0.715890	-0.216967	0.689098
	H6900	H	0.692634	-0.374523	0.629157
	H6901	H	0.694376	-0.125043	0.676047
	H6902	H	0.630244	-0.124418	0.691837
	H6903	H	0.756819	-0.375808	0.613516
	H6904	H	0.668110	-0.285185	0.637095
	H6905	H	0.651394	-0.285185	0.639032
	H6906	H	0.655085	-0.215101	0.689787
	H6907	H	0.670590	-0.215274	0.678726
	H6908	H	0.651350	0.034845	0.639101
	H6909	H	0.668062	0.034952	0.637151
	H6910	H	0.670531	-0.534287	0.678644
	H6911	H	0.655067	-0.533861	0.689709
	H6912	H	0.716014	-0.533180	0.688942
	H6913	H	0.729270	-0.533140	0.710880
	H6914	H	0.717587	0.033934	0.627263
	H6915	H	0.733055	0.034514	0.616273
	Al6916	Al	0.694055	0.000344	0.652547
	Al6917	Al	0.694098	0.249380	0.652646
	Al6918	Al	0.625007	0.249909	0.625048
	Al6919	Al	0.624997	-0.000145	0.625023
	O6920	O	0.703609	0.040849	0.669577
	O6921	O	0.693670	0.124885	0.641351
	O6922	O	0.694141	0.374955	0.663858
	O6923	O	0.741299	0.040893	0.731255
	O6924	O	0.684549	0.040812	0.667489
	O6925	O	0.641034	0.040765	0.700416
	O6926	O	0.684646	0.209265	0.667743
	O6927	O	0.683557	0.290511	0.637734
	O6928	O	0.635848	0.291147	0.638541
	O6929	O	0.703604	0.208822	0.669554
	O6930	O	0.703557	0.291040	0.637969
	O6931	O	0.747068	0.290859	0.605081
	O6932	O	0.641025	0.209004	0.700414
	O6933	O	0.683596	0.458968	0.637590
	O6934	O	0.635882	0.459251	0.638424
	O6935	O	0.747107	0.459102	0.605188
	O6936	O	0.703570	0.459131	0.637927
	O6937	O	0.741279	0.209160	0.731315
	O6938	O	0.631182	0.375261	0.703901
	O6939	O	0.756605	0.124899	0.601488
	C6940	C	0.726323	0.214115	0.706231
	C6941	C	0.730167	0.125112	0.712552
	C6942	C	0.726338	0.035915	0.706291
	C6943	C	0.718842	0.035613	0.693990
	C6944	C	0.715006	0.124683	0.687680
	C6945	C	0.718823	0.213845	0.693927
	C6946	C	0.706850	0.124749	0.674561
	C6947	C	0.738151	0.124949	0.726042
	C6948	C	0.680969	0.125208	0.670498
	C6949	C	0.671710	0.125233	0.677935
	C6950	C	0.667213	0.214862	0.681099
	C6951	C	0.658465	0.214765	0.687269
	C6952	C	0.653985	0.125061	0.690344
	C6953	C	0.658484	0.035520	0.687207
	C6954	C	0.667235	0.035501	0.681058
	C6955	C	0.644704	0.124902	0.697666
	C6956	C	0.679543	0.374838	0.637354
	C6957	C	0.669280	0.375017	0.636997
	C6958	C	0.664445	0.464900	0.637580
	C6959	C	0.655009	0.465143	0.638687
	C6960	C	0.650156	0.375260	0.639150
	C6961	C	0.654997	0.285410	0.638714
	C6962	C	0.664431	0.285307	0.637633
	C6963	C	0.639899	0.375150	0.638756
	C6964	C	0.707239	0.375070	0.635231
	C6965	C	0.716545	0.374832	0.628055
	C6966	C	0.721036	0.285159	0.625060
	C6967	C	0.729765	0.285119	0.618835
	C6968	C	0.734236	0.374902	0.615589
	C6969	C	0.729763	0.464505	0.618714
	C6970	C	0.721022	0.464433	0.624920
	C6971	C	0.743459	0.374991	0.608066
	H6972	H	0.733127	0.215035	0.616454
	H6973	H	0.717676	0.215537	0.627525
	H6974	H	0.729189	0.283014	0.710936
	H6975	H	0.715946	0.282710	0.689093
	H6976	H	0.692701	0.125174	0.629229
	H6977	H	0.693994	0.375164	0.676002
	H6978	H	0.630340	0.374903	0.691712
	H6979	H	0.756623	0.125294	0.613714
	H6980	H	0.668047	0.215401	0.637165
	H6981	H	0.651372	0.215466	0.639150
	H6982	H	0.655100	0.284787	0.689692
	H6983	H	0.670602	0.284851	0.678740
	H6984	H	0.651373	0.535017	0.639118
	H6985	H	0.668092	0.534828	0.637151
	H6986	H	0.670586	-0.034184	0.678687
	H6987	H	0.655105	-0.034218	0.689653
	H6988	H	0.715963	-0.033725	0.689257
	H6989	H	0.729228	-0.033129	0.711130
	H6990	H	0.717618	0.534007	0.627304
	H6991	H	0.733129	0.534454	0.616238
	Al6992	Al	0.687507	-0.500108	0.812509
	Al6993	Al	0.687521	-0.250270	0.812450
	Al6994	Al	0.631568	-0.249659	0.715148
	Al6995	Al	0.631567	-0.500548	0.715063
	O6996	O	0.696240	-0.459335	0.831182
	O6997	O	0.688039	-0.375286	0.801483
	O6998	O	0.687057	-0.125637	0.823504
	O6999	O	0.733875	-0.459169	0.893097
	O7000	O	0.677458	-0.459223	0.825640
	O7001	O	0.635045	-0.459094	0.862009
	O7002	O	0.677425	-0.291019	0.825526
	O7003	O	0.678786	-0.209330	0.793784
	O7004	O	0.641111	-0.208953	0.732161
	O7005	O	0.696217	-0.291081	0.831129
	O7006	O	0.697559	-0.208949	0.799404
	O7007	O	0.739932	-0.208644	0.762973
	O7008	O	0.635006	-0.290873	0.861988
	O7009	O	0.678808	-0.041078	0.793873
	O7010	O	0.641110	-0.041139	0.732101
	O7011	O	0.739930	-0.040356	0.763015
	O7012	O	0.697546	-0.040606	0.799421
	O7013	O	0.733927	-0.291136	0.892922
	O7014	O	0.625457	-0.125115	0.863991
	O7015	O	0.749480	-0.375267	0.760968
	C7016	C	0.718658	-0.285698	0.868510
	C7017	C	0.722510	-0.374860	0.874846
	C7018	C	0.718660	-0.464148	0.868580
	C7019	C	0.711179	-0.464242	0.856260
	C7020	C	0.707343	-0.375077	0.849908
	C7021	C	0.711171	-0.285818	0.856209
	C7022	C	0.699364	-0.375100	0.836372
	C7023	C	0.730664	-0.375160	0.887958
	C7024	C	0.673867	-0.374938	0.828545
	C7025	C	0.664807	-0.375144	0.836525
	C7026	C	0.660501	-0.285772	0.840123
	C7027	C	0.652016	-0.285572	0.847389
	C7028	C	0.647681	-0.374804	0.850998
	C7029	C	0.652026	-0.463982	0.847486
	C7030	C	0.660500	-0.464193	0.840263
	C7031	C	0.638596	-0.374776	0.858962
	C7032	C	0.675635	-0.125137	0.788621
	C7033	C	0.667659	-0.124915	0.775149
	C7034	C	0.663837	-0.035841	0.768862
	C7035	C	0.656355	-0.035956	0.756556
	C7036	C	0.652492	-0.124937	0.750266
	C7037	C	0.656365	-0.214059	0.756435
	C7038	C	0.663858	-0.213885	0.768732
	C7039	C	0.644334	-0.124987	0.737179
	C7040	C	0.701106	-0.124690	0.796372
	C7041	C	0.710179	-0.124790	0.788462
	C7042	C	0.714482	-0.214110	0.784736
	C7043	C	0.722958	-0.214008	0.777501
	C7044	C	0.727293	-0.124740	0.773918
	C7045	C	0.722980	-0.035705	0.777662
	C7046	C	0.714505	-0.035663	0.784849
	C7047	C	0.736371	-0.124491	0.765999
	H7048	H	0.726239	-0.283102	0.774523
	H7049	H	0.711154	-0.283003	0.787553
	H7050	H	0.721567	-0.216389	0.873244
	H7051	H	0.708269	-0.216577	0.851365
	H7052	H	0.688483	-0.375866	0.789403
	H7053	H	0.686569	-0.125890	0.835595
	H7054	H	0.625934	-0.124557	0.851906
	H7055	H	0.749008	-0.375912	0.773009
	H7056	H	0.666741	-0.282860	0.773500
	H7057	H	0.653502	-0.282959	0.751550
	H7058	H	0.648706	-0.216690	0.850187
	H7059	H	0.663811	-0.217047	0.837258
	H7060	H	0.653467	0.033196	0.751780
	H7061	H	0.666713	0.033247	0.773715
	H7062	H	0.663814	-0.533399	0.837568
	H7063	H	0.648742	-0.533194	0.850280
	H7064	H	0.708291	-0.533468	0.851463
	H7065	H	0.721569	-0.533197	0.873364
	H7066	H	0.711231	0.033378	0.787792
	H7067	H	0.726243	0.033205	0.774838
	Al7068	Al	0.687487	-0.000379	0.812561
	Al7069	Al	0.687444	0.249778	0.812538
	Al7070	Al	0.631563	0.250556	0.715120
	Al7071	Al	0.631611	-0.000674	0.715145
	O7072	O	0.696219	0.040783	0.831305
	O7073	O	0.688000	0.124530	0.801585
	O7074	O	0.686975	0.374750	0.823515
	O7075	O	0.733879	0.041470	0.892953
	O7076	O	0.677405	0.040581	0.825537
	O7077	O	0.635023	0.040860	0.861941
	O7078	O	0.677453	0.208597	0.825716
	O7079	O	0.678716	0.290983	0.793887
	O7080	O	0.641125	0.291154	0.731978
	O7081	O	0.696198	0.209037	0.831259
	O7082	O	0.697513	0.290459	0.799456
	O7083	O	0.739966	0.290762	0.763191
	O7084	O	0.635012	0.209057	0.861894
	O7085	O	0.678725	0.459083	0.793853
	O7086	O	0.641130	0.459241	0.732123
	O7087	O	0.739969	0.459095	0.763255
	O7088	O	0.697511	0.458800	0.799435
	O7089	O	0.733900	0.209325	0.892880
	O7090	O	0.625515	0.375135	0.863923
	O7091	O	0.749535	0.125140	0.760955
	C7092	C	0.718674	0.214567	0.868459
	C7093	C	0.722526	0.125377	0.874768
	C7094	C	0.718650	0.036130	0.868571
	C7095	C	0.711171	0.036165	0.856302
	C7096	C	0.707351	0.125317	0.849918
	C7097	C	0.711185	0.214620	0.856169
	C7098	C	0.699364	0.125040	0.836463
	C7099	C	0.730667	0.125356	0.887879
	C7100	C	0.673874	0.124728	0.828644
	C7101	C	0.664795	0.124766	0.836581
	C7102	C	0.660431	0.214035	0.840075
	C7103	C	0.651945	0.214135	0.847231
	C7104	C	0.647632	0.125019	0.850947
	C7105	C	0.651981	0.035617	0.847460
	C7106	C	0.660470	0.035401	0.840272
	C7107	C	0.638584	0.125007	0.858886
	C7108	C	0.675590	0.375063	0.788672
	C7109	C	0.667635	0.375179	0.775092
	C7110	C	0.663818	0.464360	0.768797
	C7111	C	0.656348	0.464482	0.756470
	C7112	C	0.652487	0.375358	0.750204
	C7113	C	0.656340	0.286245	0.756416
	C7114	C	0.663804	0.286148	0.768762
	C7115	C	0.644378	0.375077	0.737055
	C7116	C	0.701050	0.374571	0.796354
	C7117	C	0.710125	0.374643	0.788394
	C7118	C	0.714459	0.285695	0.784781
	C7119	C	0.722956	0.285846	0.777613
	C7120	C	0.727274	0.375024	0.774015
	C7121	C	0.722946	0.464114	0.777658
	C7122	C	0.714450	0.463833	0.784828
	C7123	C	0.736380	0.374976	0.766144
	H7124	H	0.726255	0.217034	0.774734
	H7125	H	0.711173	0.216619	0.787529
	H7126	H	0.721590	0.283622	0.873216
	H7127	H	0.708298	0.283759	0.851311
	H7128	H	0.688513	0.124162	0.789520
	H7129	H	0.686542	0.375023	0.835608
	H7130	H	0.626128	0.375592	0.851851
	H7131	H	0.748984	0.125188	0.773002
	H7132	H	0.666690	0.217083	0.773551
	H7133	H	0.653469	0.217524	0.751568
	H7134	H	0.648644	0.283409	0.849902
	H7135	H	0.663698	0.282935	0.837138
	H7136	H	0.653482	0.533706	0.751639
	H7137	H	0.666731	0.533574	0.773587
	H7138	H	0.663792	-0.033795	0.837529
	H7139	H	0.648688	-0.033233	0.850419
	H7140	H	0.708254	-0.033000	0.851530
	H7141	H	0.721517	-0.032936	0.873378
	H7142	H	0.711123	0.532606	0.787651
	H7143	H	0.726243	0.532861	0.774851
	Al7144	Al	0.680907	-0.500840	0.972328
	Al7145	Al	0.680929	-0.249798	0.972349
	Al7146	Al	0.624957	-0.250040	0.875099
	Al7147	Al	0.624990	-0.499887	0.874988
	O7148	O	0.691382	-0.459843	0.987244
	O7149	O	0.680844	-0.375215	0.961059
	O7150	O	0.681280	-0.125259	0.983638
	O7151	O	0.739106	-0.458643	0.986364
	O7152	O	0.671530	-0.459020	0.987070
	O7153	O	0.627883	-0.459175	1.019686
	O7154	O	0.671483	-0.291008	0.987014
	O7155	O	0.671374	-0.209100	0.955386
	O7156	O	0.633708	-0.208534	0.893716
	O7157	O	0.691344	-0.291375	0.987335
	O7158	O	0.690434	-0.208964	0.957372
	O7159	O	0.733979	-0.208833	0.924600
	O7160	O	0.627911	-0.290968	1.019891
	O7161	O	0.671432	-0.041017	0.955352
	O7162	O	0.633666	-0.040644	0.893784
	O7163	O	0.733989	-0.040757	0.924563
	O7164	O	0.690388	-0.040894	0.957357
	O7165	O	0.739047	-0.290198	0.986500
	O7166	O	0.618334	-0.125441	1.023580
	O7167	O	0.743866	-0.374947	0.921227
	C7168	C	0.719935	-0.285060	0.986212
	C7169	C	0.724784	-0.374687	0.985758
	C7170	C	0.719956	-0.464691	0.986206
	C7171	C	0.710510	-0.464827	0.987340
	C7172	C	0.705664	-0.375147	0.987921
	C7173	C	0.710492	-0.285365	0.987309
	C7174	C	0.695418	-0.375425	0.987571
	C7175	C	0.735020	-0.374494	0.986189
	C7176	C	0.667835	-0.374914	0.989809
	C7177	C	0.658506	-0.375171	0.996951
	C7178	C	0.654000	-0.285497	0.999978
	C7179	C	0.645249	-0.285471	1.006119
	C7180	C	0.640776	-0.375127	1.009338
	C7181	C	0.645276	-0.464933	1.006255
	C7182	C	0.654027	-0.464817	1.000108
	C7183	C	0.631499	-0.375029	1.016843
	C7184	C	0.668165	-0.125072	0.950359
	C7185	C	0.660022	-0.124719	0.937229
	C7186	C	0.656145	-0.035413	0.931068
	C7187	C	0.648664	-0.035182	0.918773
	C7188	C	0.644833	-0.124255	0.912427
	C7189	C	0.648659	-0.213498	0.918692
	C7190	C	0.656126	-0.213809	0.931025
	C7191	C	0.636850	-0.124550	0.898909
	C7192	C	0.694028	-0.124881	0.954436
	C7193	C	0.703301	-0.124680	0.946995
	C7194	C	0.707800	-0.214327	0.943867
	C7195	C	0.716548	-0.214237	0.937755
	C7196	C	0.721005	-0.124694	0.934543
	C7197	C	0.716504	-0.035131	0.937567
	C7198	C	0.707760	-0.035110	0.943712
	C7199	C	0.730319	-0.124754	0.927377
	H7200	H	0.719927	-0.283815	0.935389
	H7201	H	0.704429	-0.283899	0.946265
	H7202	H	0.723544	-0.214816	0.985774
	H7203	H	0.706845	-0.215693	0.987745
	H7204	H	0.680863	-0.374854	0.948844
	H7205	H	0.682203	-0.124931	0.995767
	H7206	H	0.618553	-0.125897	1.011476
	H7207	H	0.744862	-0.374812	0.933336
	H7208	H	0.659012	-0.282908	0.935818
	H7209	H	0.645780	-0.282356	0.913847
	H7210	H	0.641871	-0.215605	1.008443
	H7211	H	0.657361	-0.215866	0.997590
	H7212	H	0.645761	0.034034	0.913996
	H7213	H	0.659034	0.033369	0.935894
	H7214	H	0.657432	-0.534437	0.997795
	H7215	H	0.641910	-0.534644	1.008692
	H7216	H	0.706897	-0.534831	0.987778
	H7217	H	0.723625	-0.534553	0.985818
	H7218	H	0.704373	0.034744	0.945997
	H7219	H	0.719871	0.034630	0.935056
	Al7220	Al	0.680936	-0.000595	0.972433
	Al7221	Al	0.680934	0.250224	0.972430
	Al7222	Al	0.624979	0.250033	0.874941
	Al7223	Al	0.624987	0.000084	0.874987
	O7224	O	0.691416	0.040262	0.987473
	O7225	O	0.680825	0.124728	0.961183
	O7226	O	0.681320	0.374859	0.983583
	O7227	O	0.739105	0.041601	0.986379
	O7228	O	0.671479	0.040732	0.987094
	O7229	O	0.627862	0.040956	1.019640
	O7230	O	0.671494	0.209032	0.987145
	O7231	O	0.671406	0.290867	0.955313
	O7232	O	0.633711	0.290956	0.893689
	O7233	O	0.691387	0.208708	0.987432
	O7234	O	0.690423	0.290201	0.957382
	O7235	O	0.733973	0.291118	0.924517
	O7236	O	0.627879	0.209089	1.019734
	O7237	O	0.671370	0.458546	0.955488
	O7238	O	0.633690	0.458864	0.893775
	O7239	O	0.733988	0.459076	0.924659
	O7240	O	0.690371	0.458362	0.957239
	O7241	O	0.739056	0.209870	0.986393
	O7242	O	0.618306	0.375181	1.023529
	O7243	O	0.743799	0.124847	0.921111
	C7244	C	0.719941	0.215140	0.986237
	C7245	C	0.724799	0.125313	0.985811
	C7246	C	0.719981	0.035183	0.986273
	C7247	C	0.710553	0.035043	0.987429
	C7248	C	0.705682	0.124824	0.988019
	C7249	C	0.710507	0.214851	0.987385
	C7250	C	0.695442	0.124566	0.987679
	C7251	C	0.735032	0.125599	0.986117
	C7252	C	0.667824	0.124903	0.989897
	C7253	C	0.658519	0.125017	0.997108
	C7254	C	0.654010	0.214769	1.000059
	C7255	C	0.645247	0.214639	1.006203
	C7256	C	0.640772	0.124977	1.009442
	C7257	C	0.645281	0.035280	1.006451
	C7258	C	0.654048	0.035462	1.000323
	C7259	C	0.631504	0.125069	1.016824
	C7260	C	0.668147	0.374698	0.950375
	C7261	C	0.660033	0.374891	0.937237
	C7262	C	0.656118	0.463788	0.931066
	C7263	C	0.648635	0.463954	0.918760
	C7264	C	0.644824	0.374923	0.912438
	C7265	C	0.648722	0.286113	0.918654
	C7266	C	0.656203	0.285941	0.930944
	C7267	C	0.636855	0.374872	0.898875
	C7268	C	0.694006	0.374268	0.954402
	C7269	C	0.703279	0.374397	0.946969
	C7270	C	0.707760	0.284779	0.943744
	C7271	C	0.716519	0.284992	0.937636
	C7272	C	0.721010	0.374830	0.934548
	C7273	C	0.716503	0.464406	0.937641
	C7274	C	0.707750	0.464261	0.943721
	C7275	C	0.730333	0.375054	0.927381
	H7276	H	0.719926	0.215439	0.935206
	H7277	H	0.704403	0.215055	0.946140
	H7278	H	0.723591	0.285305	0.985859
	H7279	H	0.706859	0.285006	0.987935
	H7280	H	0.680748	0.124466	0.948947
	H7281	H	0.682321	0.375356	0.995698
	H7282	H	0.618497	0.374813	1.011356
	H7283	H	0.744657	0.124491	0.933223
	H7284	H	0.659117	0.216735	0.935653
	H7285	H	0.645885	0.217103	0.913736
	H7286	H	0.641871	0.284424	1.008499
	H7287	H	0.657357	0.284382	0.997549
	H7288	H	0.645741	0.532932	0.914003
	H7289	H	0.658990	0.532785	0.935933
	H7290	H	0.657441	-0.034292	0.998006
	H7291	H	0.641949	-0.034709	1.008940
	H7292	H	0.706935	-0.034871	0.987964
	H7293	H	0.723622	-0.034739	0.985881
	H7294	H	0.704360	0.533995	0.946105
	H7295	H	0.719876	0.534290	0.935239
	Al7296	Al	0.819066	-0.499176	0.027516
	Al7297	Al	0.819105	-0.250273	0.027568
	Al7298	Al	0.749957	-0.249785	-0.000107
	Al7299	Al	0.749956	-0.499793	-0.000097
	O7300	O	0.828596	-0.458560	0.044537
	O7301	O	0.818638	-0.374941	0.016272
	O7302	O	0.819085	-0.124771	0.038857
	O7303	O	0.866258	-0.458945	0.106294
	O7304	O	0.809580	-0.458671	0.042586
	O7305	O	0.765955	-0.458753	0.075301
	O7306	O	0.809576	-0.290419	0.042636
	O7307	O	0.808590	-0.209303	0.012583
	O7308	O	0.760868	-0.208934	0.013371
	O7309	O	0.828637	-0.290539	0.044470
	O7310	O	0.828524	-0.209102	0.012828
	O7311	O	0.872114	-0.209186	-0.019871
	O7312	O	0.765987	-0.290558	0.075274
	O7313	O	0.808608	-0.041103	0.012464
	O7314	O	0.760891	-0.040601	0.013266
	O7315	O	0.872098	-0.040964	-0.019931
	O7316	O	0.828529	-0.040883	0.012931
	O7317	O	0.866298	-0.290763	0.106227
	O7318	O	0.756201	-0.124440	0.078840
	O7319	O	0.881673	-0.374976	-0.023609
	C7320	C	0.851393	-0.285694	0.081086
	C7321	C	0.855168	-0.374671	0.087521
	C7322	C	0.851315	-0.463655	0.081233
	C7323	C	0.843843	-0.463587	0.068897
	C7324	C	0.840001	-0.374592	0.062636
	C7325	C	0.843919	-0.285513	0.068773
	C7326	C	0.831865	-0.374587	0.049483
	C7327	C	0.863134	-0.374949	0.101061
	C7328	C	0.805944	-0.374667	0.045472
	C7329	C	0.796648	-0.374746	0.052807
	C7330	C	0.792142	-0.285188	0.055960
	C7331	C	0.783403	-0.285273	0.062075
	C7332	C	0.778928	-0.375028	0.065187
	C7333	C	0.783436	-0.464715	0.062140
	C7334	C	0.792191	-0.464484	0.056024
	C7335	C	0.769629	-0.374896	0.072455
	C7336	C	0.804537	-0.125166	0.012177
	C7337	C	0.794283	-0.125106	0.011865
	C7338	C	0.789453	-0.035210	0.012365
	C7339	C	0.780023	-0.035136	0.013449
	C7340	C	0.775173	-0.124926	0.013943
	C7341	C	0.779992	-0.214933	0.013456
	C7342	C	0.789429	-0.215004	0.012379
	C7343	C	0.764922	-0.124864	0.013560
	C7344	C	0.832196	-0.125015	0.010131
	C7345	C	0.841500	-0.124743	0.002923
	C7346	C	0.845977	-0.214353	-0.000226
	C7347	C	0.854731	-0.214423	-0.006352
	C7348	C	0.859219	-0.124851	-0.009489
	C7349	C	0.854727	-0.035037	-0.006325
	C7350	C	0.845979	-0.035051	-0.000183
	C7351	C	0.868461	-0.124997	-0.016988
	H7352	H	0.858056	-0.284213	-0.008827
	H7353	H	0.842580	-0.284058	0.002176
	H7354	H	0.854322	-0.216845	0.085796
	H7355	H	0.841080	-0.216530	0.063807
	H7356	H	0.817654	-0.375047	0.004167
	H7357	H	0.818896	-0.124702	0.051058
	H7358	H	0.755271	-0.124820	0.066663
	H7359	H	0.881728	-0.375650	-0.011396
	H7360	H	0.793062	-0.285051	0.011992
	H7361	H	0.776342	-0.284806	0.013978
	H7362	H	0.780009	-0.215573	0.064443
	H7363	H	0.795513	-0.215614	0.053566
	H7364	H	0.776422	0.035063	0.013953
	H7365	H	0.793082	0.034990	0.011986
	H7366	H	0.795578	-0.533986	0.053683
	H7367	H	0.780036	-0.534135	0.064584
	H7368	H	0.840944	-0.532296	0.064123
	H7369	H	0.854215	-0.532628	0.086059
	H7370	H	0.842586	0.034938	0.002204
	H7371	H	0.858091	0.034667	-0.008801
	Al7372	Al	0.819061	0.000617	0.027470
	Al7373	Al	0.819043	0.249817	0.027531
	Al7374	Al	0.749949	0.250466	-0.000160
	Al7375	Al	0.749975	0.000304	-0.000092
	O7376	O	0.828594	0.041427	0.044505
	O7377	O	0.818671	0.125259	0.016226
	O7378	O	0.819139	0.375299	0.038800
	O7379	O	0.866246	0.040928	0.106284
	O7380	O	0.809503	0.040989	0.042409
	O7381	O	0.765987	0.041398	0.075386
	O7382	O	0.809577	0.209439	0.042574
	O7383	O	0.808613	0.291209	0.012434
	O7384	O	0.760905	0.291534	0.013249
	O7385	O	0.828620	0.209182	0.044439
	O7386	O	0.828493	0.291253	0.012929
	O7387	O	0.872080	0.291266	-0.019835
	O7388	O	0.765978	0.209505	0.075341
	O7389	O	0.808607	0.459601	0.012469
	O7390	O	0.760874	0.459498	0.013357
	O7391	O	0.871982	0.459525	-0.020069
	O7392	O	0.828540	0.459399	0.012900
	O7393	O	0.866266	0.209108	0.106147
	O7394	O	0.756145	0.375260	0.078857
	O7395	O	0.881683	0.125124	-0.023625
	C7396	C	0.851399	0.214051	0.081029
	C7397	C	0.855163	0.125031	0.087461
	C7398	C	0.851286	0.036167	0.081256
	C7399	C	0.843819	0.036171	0.068915
	C7400	C	0.840012	0.125113	0.062587
	C7401	C	0.843920	0.213994	0.068718
	C7402	C	0.831850	0.125209	0.049477
	C7403	C	0.863106	0.125056	0.101032
	C7404	C	0.805908	0.125300	0.045404
	C7405	C	0.796649	0.125395	0.052840
	C7406	C	0.792149	0.215078	0.055926
	C7407	C	0.783402	0.215044	0.062097
	C7408	C	0.778937	0.125342	0.065289
	C7409	C	0.783468	0.035689	0.062372
	C7410	C	0.792210	0.035589	0.056183
	C7411	C	0.769638	0.125518	0.072564
	C7412	C	0.804569	0.375406	0.012248
	C7413	C	0.794328	0.375593	0.011956
	C7414	C	0.789489	0.465409	0.012561
	C7415	C	0.780059	0.465305	0.013645
	C7416	C	0.775196	0.375525	0.014072
	C7417	C	0.780051	0.285734	0.013438
	C7418	C	0.789472	0.285886	0.012355
	C7419	C	0.764937	0.375529	0.013589
	C7420	C	0.832167	0.375215	0.010146
	C7421	C	0.841461	0.375222	0.002962
	C7422	C	0.845974	0.285445	-0.000089
	C7423	C	0.854704	0.285398	-0.006296
	C7424	C	0.859154	0.375134	-0.009589
	C7425	C	0.854657	0.464895	-0.006384
	C7426	C	0.845932	0.464989	-0.000175
	C7427	C	0.868414	0.375368	-0.017025
	H7428	H	0.858115	0.215840	-0.008579
	H7429	H	0.842569	0.216106	0.002398
	H7430	H	0.854304	0.282989	0.085789
	H7431	H	0.841069	0.283024	0.063893
	H7432	H	0.817707	0.125480	0.004077
	H7433	H	0.819014	0.375140	0.050983
	H7434	H	0.755198	0.374781	0.066712
	H7435	H	0.881750	0.124604	-0.011451
	H7436	H	0.793118	0.215823	0.011831
	H7437	H	0.776405	0.215789	0.013719
	H7438	H	0.780001	0.284559	0.064408
	H7439	H	0.795509	0.284875	0.053389
	H7440	H	0.776427	0.535429	0.014121
	H7441	H	0.793153	0.535446	0.012205
	H7442	H	0.795571	-0.034145	0.053850
	H7443	H	0.780109	-0.033940	0.064914
	H7444	H	0.840889	-0.032842	0.064254
	H7445	H	0.854098	-0.032932	0.086218
	H7446	H	0.842540	0.534713	0.002240
	H7447	H	0.858036	0.534738	-0.008770
	Al7448	Al	0.812518	-0.499866	0.187427
	Al7449	Al	0.812494	-0.250311	0.187533
	Al7450	Al	0.756571	-0.249232	0.090059
	Al7451	Al	0.756587	-0.500069	0.090074
	O7452	O	0.821205	-0.458789	0.206176
	O7453	O	0.813000	-0.375070	0.176447
	O7454	O	0.811962	-0.124899	0.198399
	O7455	O	0.858910	-0.458909	0.267968
	O7456	O	0.802439	-0.459006	0.200579
	O7457	O	0.760017	-0.458655	0.236843
	O7458	O	0.802423	-0.290875	0.200543
	O7459	O	0.803716	-0.209234	0.168812
	O7460	O	0.766067	-0.208786	0.107064
	O7461	O	0.821204	-0.290463	0.206225
	O7462	O	0.822494	-0.208864	0.174322
	O7463	O	0.864919	-0.209344	0.137988
	O7464	O	0.760048	-0.290573	0.236866
	O7465	O	0.803710	-0.041310	0.168743
	O7466	O	0.766088	-0.041073	0.107053
	O7467	O	0.864944	-0.040957	0.138007
	O7468	O	0.822483	-0.040686	0.174273
	O7469	O	0.858921	-0.291011	0.267851
	O7470	O	0.750525	-0.124686	0.239025
	O7471	O	0.874483	-0.374907	0.135971
	C7472	C	0.843693	-0.285995	0.243405
	C7473	C	0.847557	-0.374725	0.249677
	C7474	C	0.843676	-0.463505	0.243427
	C7475	C	0.836203	-0.463416	0.231195
	C7476	C	0.832351	-0.374697	0.224898
	C7477	C	0.836215	-0.285813	0.231177
	C7478	C	0.824373	-0.374495	0.211388
	C7479	C	0.855693	-0.375025	0.262855
	C7480	C	0.798853	-0.375196	0.203535
	C7481	C	0.789795	-0.375233	0.211481
	C7482	C	0.785453	-0.285972	0.215051
	C7483	C	0.776972	-0.285777	0.222216
	C7484	C	0.772660	-0.374937	0.225892
	C7485	C	0.776983	-0.464274	0.222261
	C7486	C	0.785476	-0.464521	0.215114
	C7487	C	0.763585	-0.374809	0.233841
	C7488	C	0.800591	-0.125243	0.163551
	C7489	C	0.792619	-0.125204	0.149993
	C7490	C	0.788822	-0.036317	0.143622
	C7491	C	0.781349	-0.036042	0.131293
	C7492	C	0.777482	-0.125034	0.125084
	C7493	C	0.781285	-0.213946	0.131412
	C7494	C	0.788753	-0.214034	0.143747
	C7495	C	0.769327	-0.124666	0.112019
	C7496	C	0.826071	-0.124896	0.171333
	C7497	C	0.835145	-0.124646	0.163344
	C7498	C	0.839476	-0.213892	0.159828
	C7499	C	0.847964	-0.214010	0.152640
	C7500	C	0.852284	-0.124982	0.148926
	C7501	C	0.847920	-0.035608	0.152348
	C7502	C	0.839441	-0.035530	0.159555
	C7503	C	0.861363	-0.124932	0.140960
	H7504	H	0.851274	-0.283374	0.149856
	H7505	H	0.836176	-0.282720	0.162780
	H7506	H	0.846598	-0.217532	0.248208
	H7507	H	0.833345	-0.217028	0.226287
	H7508	H	0.813552	-0.375284	0.164346
	H7509	H	0.811509	-0.125324	0.210430
	H7510	H	0.751093	-0.124377	0.227040
	H7511	H	0.873956	-0.374861	0.148062
	H7512	H	0.791604	-0.282896	0.148646
	H7513	H	0.778368	-0.282836	0.126689
	H7514	H	0.773646	-0.217324	0.224946
	H7515	H	0.788720	-0.217035	0.212170
	H7516	H	0.778482	0.032606	0.126457
	H7517	H	0.791718	0.032804	0.148354
	H7518	H	0.788793	-0.533175	0.212263
	H7519	H	0.773689	-0.532997	0.225076
	H7520	H	0.833303	-0.532007	0.226348
	H7521	H	0.846585	-0.532279	0.248252
	H7522	H	0.836128	0.033338	0.162214
	H7523	H	0.851191	0.033341	0.149288
	Al7524	Al	0.812455	0.000049	0.187410
	Al7525	Al	0.812472	0.250132	0.187507
	Al7526	Al	0.756574	0.250647	0.090117
	Al7527	Al	0.756565	-0.000044	0.090074
	O7528	O	0.821191	0.040977	0.206097
	O7529	O	0.813011	0.125257	0.176465
	O7530	O	0.811974	0.375260	0.198443
	O7531	O	0.858897	0.041036	0.267828
	O7532	O	0.802448	0.040900	0.200610
	O7533	O	0.760009	0.041122	0.236856
	O7534	O	0.802439	0.209234	0.200512
	O7535	O	0.803818	0.291218	0.168774
	O7536	O	0.766111	0.291180	0.107064
	O7537	O	0.821201	0.209307	0.206175
	O7538	O	0.822554	0.290741	0.174410
	O7539	O	0.864946	0.291134	0.137953
	O7540	O	0.760033	0.209696	0.236990
	O7541	O	0.803765	0.459414	0.168716
	O7542	O	0.766177	0.459006	0.106949
	O7543	O	0.864890	0.459600	0.137882
	O7544	O	0.822522	0.459269	0.174331
	O7545	O	0.858902	0.209150	0.267812
	O7546	O	0.750550	0.375179	0.239080
	O7547	O	0.874473	0.125083	0.135965
	C7548	C	0.843668	0.213926	0.243323
	C7549	C	0.847519	0.125083	0.249650
	C7550	C	0.843660	0.036093	0.243477
	C7551	C	0.836167	0.036089	0.231182
	C7552	C	0.832329	0.124992	0.224821
	C7553	C	0.836167	0.213937	0.231036
	C7554	C	0.824328	0.125166	0.211312
	C7555	C	0.855659	0.124951	0.262820
	C7556	C	0.798874	0.124854	0.203533
	C7557	C	0.789794	0.125358	0.211495
	C7558	C	0.785463	0.214830	0.215039
	C7559	C	0.776980	0.214990	0.222285
	C7560	C	0.772666	0.125613	0.225984
	C7561	C	0.776997	0.036281	0.222412
	C7562	C	0.785490	0.035979	0.215218
	C7563	C	0.763589	0.125519	0.233919
	C7564	C	0.800638	0.375309	0.163558
	C7565	C	0.792670	0.375253	0.150064
	C7566	C	0.788838	0.463998	0.143704
	C7567	C	0.781376	0.464035	0.131391
	C7568	C	0.777521	0.375144	0.125150
	C7569	C	0.781403	0.286221	0.131382
	C7570	C	0.788863	0.286474	0.143690
	C7571	C	0.769378	0.375008	0.112026
	C7572	C	0.826095	0.374795	0.171402
	C7573	C	0.835152	0.374952	0.163333
	C7574	C	0.839539	0.285777	0.159924
	C7575	C	0.848006	0.285904	0.152693
	C7576	C	0.852283	0.375173	0.148869
	C7577	C	0.847925	0.464352	0.152391
	C7578	C	0.839451	0.464221	0.159606
	C7579	C	0.861358	0.375358	0.140890
	H7580	H	0.851358	0.217231	0.150031
	H7581	H	0.836295	0.216779	0.162997
	H7582	H	0.846559	0.282835	0.248041
	H7583	H	0.833295	0.282614	0.226200
	H7584	H	0.813618	0.125323	0.164440
	H7585	H	0.811264	0.374806	0.210429
	H7586	H	0.751280	0.375415	0.227125
	H7587	H	0.874072	0.124985	0.147998
	H7588	H	0.791777	0.217528	0.148501
	H7589	H	0.778531	0.217309	0.126546
	H7590	H	0.773674	0.284025	0.225033
	H7591	H	0.788757	0.283525	0.212066
	H7592	H	0.778444	0.532764	0.126585
	H7593	H	0.791735	0.532755	0.148491
	H7594	H	0.788765	-0.033047	0.212398
	H7595	H	0.773700	-0.032637	0.225328
	H7596	H	0.833280	-0.032943	0.226424
	H7597	H	0.846529	-0.032803	0.248358
	H7598	H	0.836137	0.533076	0.162436
	H7599	H	0.851202	0.533213	0.149478
	Al7600	Al	0.805889	-0.500127	0.347465
	Al7601	Al	0.805889	-0.249352	0.347447
	Al7602	Al	0.750020	-0.249867	0.249996
	Al7603	Al	0.750001	-0.499762	0.250069
	O7604	O	0.816404	-0.459080	0.362313
	O7605	O	0.805802	-0.374662	0.336200
	O7606	O	0.806276	-0.124918	0.358711
	O7607	O	0.864115	-0.458570	0.361615
	O7608	O	0.796481	-0.458884	0.362128
	O7609	O	0.752877	-0.459047	0.394923
	O7610	O	0.796437	-0.290660	0.362101
	O7611	O	0.796419	-0.208505	0.330412
	O7612	O	0.758696	-0.208823	0.268823
	O7613	O	0.816376	-0.290772	0.362423
	O7614	O	0.815337	-0.209104	0.332306
	O7615	O	0.858900	-0.209505	0.299529
	O7616	O	0.752857	-0.290972	0.394888
	O7617	O	0.796312	-0.040587	0.330607
	O7618	O	0.758712	-0.040796	0.268842
	O7619	O	0.858999	-0.041280	0.299572
	O7620	O	0.815384	-0.040861	0.332400
	O7621	O	0.864092	-0.290616	0.361689
	O7622	O	0.743329	-0.124618	0.398642
	O7623	O	0.868787	-0.375051	0.296237
	C7624	C	0.844954	-0.284905	0.361446
	C7625	C	0.849798	-0.374727	0.360963
	C7626	C	0.844953	-0.464513	0.361511
	C7627	C	0.835524	-0.464329	0.362549
	C7628	C	0.830687	-0.374638	0.363016
	C7629	C	0.835529	-0.284895	0.362486
	C7630	C	0.820436	-0.374834	0.362634
	C7631	C	0.860054	-0.374743	0.361354
	C7632	C	0.792788	-0.374860	0.364874
	C7633	C	0.783499	-0.374784	0.372138
	C7634	C	0.779017	-0.285314	0.375291
	C7635	C	0.770261	-0.285506	0.381399
	C7636	C	0.765760	-0.375212	0.384521
	C7637	C	0.770237	-0.464760	0.381301
	C7638	C	0.778995	-0.464525	0.375154
	C7639	C	0.756481	-0.374849	0.391943
	C7640	C	0.793137	-0.124652	0.325464
	C7641	C	0.785017	-0.124502	0.312322
	C7642	C	0.781119	-0.035710	0.306126
	C7643	C	0.773632	-0.035726	0.293849
	C7644	C	0.769826	-0.124710	0.287522
	C7645	C	0.773716	-0.213481	0.293750
	C7646	C	0.781202	-0.213425	0.306029
	C7647	C	0.761868	-0.124708	0.273969
	C7648	C	0.818977	-0.124829	0.329401
	C7649	C	0.828231	-0.125040	0.321871
	C7650	C	0.832704	-0.214634	0.318636
	C7651	C	0.841445	-0.214620	0.312546
	C7652	C	0.845954	-0.125020	0.309512
	C7653	C	0.841486	-0.035377	0.312698
	C7654	C	0.832737	-0.035438	0.318788
	C7655	C	0.855285	-0.125104	0.302315
	H7656	H	0.844843	-0.283898	0.310128
	H7657	H	0.829341	-0.284320	0.321083
	H7658	H	0.848606	-0.214983	0.361053
	H7659	H	0.831891	-0.214914	0.362955
	H7660	H	0.805834	-0.374447	0.323977
	H7661	H	0.806989	-0.125121	0.370878
	H7662	H	0.743571	-0.124754	0.386436
	H7663	H	0.869706	-0.374850	0.308352
	H7664	H	0.784134	-0.282365	0.310780
	H7665	H	0.770856	-0.282047	0.288832
	H7666	H	0.766896	-0.215439	0.383848
	H7667	H	0.782401	-0.215716	0.372978
	H7668	H	0.770748	0.033319	0.289048
	H7669	H	0.784030	0.032966	0.310926
	H7670	H	0.782370	-0.534008	0.372739
	H7671	H	0.766853	-0.534408	0.383727
	H7672	H	0.831881	-0.534047	0.363007
	H7673	H	0.848583	-0.534692	0.361114
	H7674	H	0.829353	0.033969	0.321304
	H7675	H	0.844867	0.033948	0.310385
	Al7676	Al	0.805916	-0.000412	0.347494
	Al7677	Al	0.805941	0.250758	0.347531
	Al7678	Al	0.749961	0.250089	0.250027
	Al7679	Al	0.749979	0.000162	0.249996
	O7680	O	0.816395	0.040989	0.362556
	O7681	O	0.805885	0.125075	0.336258
	O7682	O	0.806289	0.375614	0.358726
	O7683	O	0.864092	0.040933	0.361621
	O7684	O	0.796510	0.040926	0.362242
	O7685	O	0.752843	0.040748	0.394803
	O7686	O	0.796523	0.209258	0.362251
	O7687	O	0.796397	0.290742	0.330489
	O7688	O	0.758693	0.291030	0.268748
	O7689	O	0.816371	0.209632	0.362485
	O7690	O	0.815362	0.291772	0.332383
	O7691	O	0.858927	0.291024	0.299487
	O7692	O	0.752868	0.208965	0.394774
	O7693	O	0.796352	0.458644	0.330481
	O7694	O	0.758781	0.459054	0.268713
	O7695	O	0.858946	0.459300	0.299620
	O7696	O	0.815390	0.460022	0.332384
	O7697	O	0.864098	0.209190	0.361527
	O7698	O	0.743267	0.375156	0.398734
	O7699	O	0.868794	0.125018	0.296112
	C7700	C	0.844961	0.215133	0.361430
	C7701	C	0.849805	0.125127	0.360962
	C7702	C	0.844945	0.035259	0.361443
	C7703	C	0.835514	0.035316	0.362503
	C7704	C	0.830683	0.125342	0.363059
	C7705	C	0.835523	0.215287	0.362506
	C7706	C	0.820431	0.125368	0.362805
	C7707	C	0.860044	0.125073	0.361286
	C7708	C	0.792845	0.125167	0.364966
	C7709	C	0.783500	0.124599	0.372079
	C7710	C	0.779001	0.214173	0.375186
	C7711	C	0.770236	0.214153	0.381266
	C7712	C	0.765747	0.124568	0.384347
	C7713	C	0.770209	0.034883	0.381078
	C7714	C	0.778966	0.035153	0.374959
	C7715	C	0.756478	0.124764	0.391891
	C7716	C	0.793156	0.374607	0.325468
	C7717	C	0.785035	0.374317	0.312260
	C7718	C	0.781170	0.463273	0.306101
	C7719	C	0.773699	0.463507	0.293762
	C7720	C	0.769910	0.374837	0.287380
	C7721	C	0.773748	0.285850	0.293613
	C7722	C	0.781220	0.285589	0.305962
	C7723	C	0.761897	0.374856	0.273908
	C7724	C	0.818995	0.375671	0.329421
	C7725	C	0.828254	0.375166	0.321979
	C7726	C	0.832743	0.285370	0.318834
	C7727	C	0.841486	0.285630	0.312634
	C7728	C	0.845969	0.375245	0.309470
	C7729	C	0.841476	0.465007	0.312534
	C7730	C	0.832727	0.464785	0.318735
	C7731	C	0.855281	0.375212	0.302287
	H7732	H	0.844868	0.215896	0.310278
	H7733	H	0.829377	0.215439	0.321256
	H7734	H	0.848602	0.285337	0.360977
	H7735	H	0.831870	0.285274	0.362922
	H7736	H	0.805997	0.124807	0.324044
	H7737	H	0.807216	0.375621	0.370901
	H7738	H	0.743204	0.374610	0.386482
	H7739	H	0.869739	0.124693	0.308150
	H7740	H	0.784103	0.216477	0.310710
	H7741	H	0.770853	0.216940	0.288848
	H7742	H	0.766870	0.283905	0.383708
	H7743	H	0.782398	0.283849	0.372948
	H7744	H	0.770792	0.532679	0.289049
	H7745	H	0.784039	0.532415	0.310897
	H7746	H	0.782336	-0.034471	0.372488
	H7747	H	0.766864	-0.034820	0.383466
	H7748	H	0.831868	-0.034523	0.362925
	H7749	H	0.848584	-0.034712	0.360972
	H7750	H	0.829335	0.534591	0.321047
	H7751	H	0.844865	0.534620	0.310125
	Al7752	Al	0.812526	-0.499723	0.437547
	Al7753	Al	0.812542	-0.249647	0.437617
	Al7754	Al	0.743360	-0.250050	0.409887
	Al7755	Al	0.743441	-0.499643	0.410064
	O7756	O	0.823413	-0.458437	0.451045
	O7757	O	0.811689	-0.374426	0.426274
	O7758	O	0.813328	-0.124414	0.448902
	O7759	O	0.871136	-0.458710	0.450122
	O7760	O	0.803494	-0.459104	0.453698
	O7761	O	0.759074	-0.459082	0.484017
	O7762	O	0.803453	-0.290911	0.453599
	O7763	O	0.801636	-0.208514	0.424158
	O7764	O	0.753927	-0.209416	0.424824
	O7765	O	0.823445	-0.290300	0.451062
	O7766	O	0.821533	-0.208695	0.421472
	O7767	O	0.865918	-0.208907	0.391157
	O7768	O	0.759053	-0.291066	0.483864
	O7769	O	0.801602	-0.040515	0.424126
	O7770	O	0.753866	-0.040900	0.424977
	O7771	O	0.865939	-0.040711	0.391179
	O7772	O	0.821522	-0.040700	0.421447
	O7773	O	0.871086	-0.290519	0.450404
	O7774	O	0.749222	-0.124941	0.488589
	O7775	O	0.875791	-0.374851	0.386453
	C7776	C	0.851993	-0.284931	0.450179
	C7777	C	0.856827	-0.374870	0.449647
	C7778	C	0.851980	-0.464824	0.450128
	C7779	C	0.842550	-0.464810	0.451185
	C7780	C	0.837714	-0.374738	0.451785
	C7781	C	0.842564	-0.284808	0.451235
	C7782	C	0.827467	-0.374544	0.451326
	C7783	C	0.867078	-0.374806	0.449981
	C7784	C	0.799787	-0.374972	0.456390
	C7785	C	0.790345	-0.374942	0.463353
	C7786	C	0.785702	-0.285249	0.466065
	C7787	C	0.776786	-0.285217	0.471361
	C7788	C	0.772214	-0.375030	0.474258
	C7789	C	0.776822	-0.464727	0.471405
	C7790	C	0.785742	-0.464766	0.466100
	C7791	C	0.762775	-0.375104	0.481237
	C7792	C	0.797570	-0.124650	0.423817
	C7793	C	0.787323	-0.124937	0.423528
	C7794	C	0.782485	-0.035176	0.423930
	C7795	C	0.773052	-0.034962	0.424985
	C7796	C	0.768205	-0.124780	0.425606
	C7797	C	0.773029	-0.214638	0.424903
	C7798	C	0.782462	-0.214842	0.423858
	C7799	C	0.757942	-0.125013	0.425154
	C7800	C	0.825246	-0.124662	0.418687
	C7801	C	0.834677	-0.124797	0.411812
	C7802	C	0.839278	-0.214549	0.409010
	C7803	C	0.848207	-0.214492	0.403673
	C7804	C	0.852824	-0.124744	0.400927
	C7805	C	0.848218	-0.035036	0.403663
	C7806	C	0.839276	-0.035127	0.408958
	C7807	C	0.862232	-0.124834	0.393944
	H7808	H	0.851658	-0.284736	0.401686
	H7809	H	0.835883	-0.284796	0.411112
	H7810	H	0.855624	-0.214965	0.449702
	H7811	H	0.838924	-0.214880	0.451651
	H7812	H	0.810451	-0.374503	0.414228
	H7813	H	0.814482	-0.124359	0.461028
	H7814	H	0.748158	-0.124890	0.476590
	H7815	H	0.876846	-0.375035	0.398510
	H7816	H	0.786113	-0.284923	0.423571
	H7817	H	0.769385	-0.284719	0.425421
	H7818	H	0.773334	-0.215307	0.473281
	H7819	H	0.789129	-0.215177	0.463915
	H7820	H	0.769437	0.034935	0.425625
	H7821	H	0.786133	0.034852	0.423693
	H7822	H	0.789155	-0.534975	0.463991
	H7823	H	0.773370	-0.534552	0.473477
	H7824	H	0.838897	-0.534735	0.451537
	H7825	H	0.855614	-0.534756	0.449588
	H7826	H	0.835849	0.035073	0.411059
	H7827	H	0.851639	0.034993	0.401690
	Al7828	Al	0.812495	0.000353	0.437515
	Al7829	Al	0.812535	0.250187	0.437631
	Al7830	Al	0.743425	0.249975	0.409981
	Al7831	Al	0.743381	0.000586	0.409934
	O7832	O	0.823418	0.040978	0.450895
	O7833	O	0.811715	0.125293	0.426176
	O7834	O	0.813337	0.375375	0.448934
	O7835	O	0.871158	0.040456	0.450212
	O7836	O	0.803486	0.041200	0.453629
	O7837	O	0.759026	0.040890	0.483835
	O7838	O	0.803519	0.209264	0.453764
	O7839	O	0.801685	0.290988	0.424075
	O7840	O	0.753938	0.290402	0.424811
	O7841	O	0.823455	0.209092	0.451019
	O7842	O	0.821580	0.291133	0.421623
	O7843	O	0.865935	0.290661	0.391055
	O7844	O	0.759117	0.209056	0.484066
	O7845	O	0.801654	0.459031	0.424053
	O7846	O	0.753939	0.458884	0.424955
	O7847	O	0.865967	0.458602	0.391138
	O7848	O	0.821585	0.459152	0.421473
	O7849	O	0.871128	0.208791	0.450348
	O7850	O	0.749234	0.375445	0.488692
	O7851	O	0.875743	0.125270	0.386460
	C7852	C	0.852022	0.214540	0.450179
	C7853	C	0.856853	0.124418	0.449700
	C7854	C	0.852013	0.034530	0.450229
	C7855	C	0.842573	0.034747	0.451187
	C7856	C	0.837733	0.124750	0.451609
	C7857	C	0.842584	0.214622	0.451146
	C7858	C	0.827483	0.124873	0.451238
	C7859	C	0.867091	0.124569	0.449930
	C7860	C	0.799815	0.125114	0.456498
	C7861	C	0.790382	0.125075	0.463431
	C7862	C	0.785764	0.214663	0.466160
	C7863	C	0.776839	0.214608	0.471493
	C7864	C	0.772237	0.124906	0.474296
	C7865	C	0.776861	0.035230	0.471533
	C7866	C	0.785791	0.035226	0.466217
	C7867	C	0.762780	0.124882	0.481237
	C7868	C	0.797621	0.374968	0.423712
	C7869	C	0.787363	0.374764	0.423418
	C7870	C	0.782505	0.464687	0.423833
	C7871	C	0.773081	0.464639	0.424891
	C7872	C	0.768248	0.374590	0.425493
	C7873	C	0.773117	0.284728	0.424951
	C7874	C	0.782543	0.284707	0.423851
	C7875	C	0.757970	0.374604	0.425133
	C7876	C	0.825251	0.375151	0.418682
	C7877	C	0.834680	0.374918	0.411744
	C7878	C	0.839252	0.285203	0.408882
	C7879	C	0.848175	0.285103	0.403517
	C7880	C	0.852803	0.374762	0.400802
	C7881	C	0.848238	0.464423	0.403718
	C7882	C	0.839314	0.464555	0.409093
	C7883	C	0.862250	0.374663	0.393799
	H7884	H	0.851598	0.214738	0.401451
	H7885	H	0.835814	0.214925	0.410928
	H7886	H	0.855686	0.284446	0.449786
	H7887	H	0.838960	0.284730	0.451596
	H7888	H	0.810728	0.125626	0.414044
	H7889	H	0.814410	0.375431	0.461009
	H7890	H	0.748142	0.376066	0.476555
	H7891	H	0.876515	0.125409	0.398587
	H7892	H	0.786217	0.214528	0.423605
	H7893	H	0.769503	0.214808	0.425606
	H7894	H	0.773371	0.284548	0.473424
	H7895	H	0.789159	0.284812	0.464016
	H7896	H	0.769447	0.534504	0.425499
	H7897	H	0.786171	0.534622	0.423577
	H7898	H	0.789228	-0.034827	0.464084
	H7899	H	0.773434	-0.035100	0.473480
	H7900	H	0.838922	-0.035074	0.451612
	H7901	H	0.855643	-0.035464	0.449877
	H7902	H	0.835926	0.534509	0.411281
	H7903	H	0.851707	0.534490	0.401799
	Al7904	Al	0.819136	-0.499985	0.527680
	Al7905	Al	0.819053	-0.250822	0.527672
	Al7906	Al	0.750017	-0.249912	0.499966
	Al7907	Al	0.750004	-0.499884	0.500116
	O7908	O	0.828655	-0.459065	0.544709
	O7909	O	0.818716	-0.375306	0.516487
	O7910	O	0.819179	-0.125083	0.538959
	O7911	O	0.866301	-0.459325	0.606441
	O7912	O	0.809603	-0.459771	0.542680
	O7913	O	0.766002	-0.459172	0.575416
	O7914	O	0.809594	-0.291229	0.542783
	O7915	O	0.808582	-0.209442	0.512719
	O7916	O	0.760867	-0.208973	0.513575
	O7917	O	0.828629	-0.291089	0.544742
	O7918	O	0.828492	-0.209014	0.513018
	O7919	O	0.872109	-0.208450	0.480347
	O7920	O	0.766034	-0.290882	0.575483
	O7921	O	0.808589	-0.041100	0.512772
	O7922	O	0.760920	-0.040729	0.513300
	O7923	O	0.872088	-0.040402	0.480331
	O7924	O	0.828490	-0.040995	0.512898
	O7925	O	0.866298	-0.291272	0.606435
	O7926	O	0.756167	-0.125203	0.578906
	O7927	O	0.881709	-0.375586	0.476541
	C7928	C	0.851351	-0.285958	0.581467
	C7929	C	0.855188	-0.375132	0.587716
	C7930	C	0.851420	-0.464071	0.581242
	C7931	C	0.843956	-0.463939	0.568905
	C7932	C	0.840043	-0.374872	0.562792
	C7933	C	0.843876	-0.285934	0.569140
	C7934	C	0.831891	-0.374797	0.549709
	C7935	C	0.863125	-0.375482	0.601265
	C7936	C	0.805983	-0.375561	0.545685
	C7937	C	0.796719	-0.375668	0.553104
	C7938	C	0.792229	-0.285738	0.556218
	C7939	C	0.783500	-0.285676	0.562369
	C7940	C	0.779018	-0.375247	0.565585
	C7941	C	0.783509	-0.465172	0.562592
	C7942	C	0.792251	-0.465245	0.556434
	C7943	C	0.769704	-0.375113	0.572733
	C7944	C	0.804532	-0.125235	0.512483
	C7945	C	0.794305	-0.125190	0.512179
	C7946	C	0.789470	-0.035197	0.512591
	C7947	C	0.780032	-0.035221	0.513612
	C7948	C	0.775179	-0.125087	0.514206
	C7949	C	0.780013	-0.215148	0.513661
	C7950	C	0.789455	-0.215202	0.512611
	C7951	C	0.764942	-0.125075	0.513744
	C7952	C	0.832156	-0.125115	0.510206
	C7953	C	0.841478	-0.125096	0.503076
	C7954	C	0.845989	-0.214513	0.500023
	C7955	C	0.854731	-0.214135	0.493929
	C7956	C	0.859217	-0.124491	0.490730
	C7957	C	0.854717	-0.035029	0.493927
	C7958	C	0.845969	-0.035398	0.500030
	C7959	C	0.868473	-0.124527	0.483257
	H7960	H	0.858131	-0.283539	0.491469
	H7961	H	0.842632	-0.284123	0.502416
	H7962	H	0.854181	-0.216972	0.586387
	H7963	H	0.840925	-0.216867	0.564464
	H7964	H	0.817837	-0.375555	0.504370
	H7965	H	0.819087	-0.124764	0.551132
	H7966	H	0.755319	-0.124999	0.566831
	H7967	H	0.881793	-0.375836	0.488771
	H7968	H	0.793064	-0.285076	0.512254
	H7969	H	0.776350	-0.285042	0.514088
	H7970	H	0.780120	-0.216174	0.564734
	H7971	H	0.795608	-0.216074	0.553728
	H7972	H	0.776414	0.034768	0.514024
	H7973	H	0.793144	0.034447	0.512158
	H7974	H	0.795638	-0.534921	0.554113
	H7975	H	0.780104	-0.534657	0.565145
	H7976	H	0.841083	-0.532969	0.564058
	H7977	H	0.854360	-0.533106	0.585961
	H7978	H	0.842559	0.033886	0.502475
	H7979	H	0.858080	0.034912	0.491543
	Al7980	Al	0.819097	0.000067	0.527697
	Al7981	Al	0.819083	0.249235	0.527606
	Al7982	Al	0.749993	0.249966	0.500039
	Al7983	Al	0.750016	-0.000002	0.499951
	O7984	O	0.828659	0.040733	0.544529
	O7985	O	0.818690	0.124771	0.516400
	O7986	O	0.819166	0.374500	0.538953
	O7987	O	0.866257	0.040568	0.606381
	O7988	O	0.809655	0.040983	0.542891
	O7989	O	0.766078	0.040417	0.575650
	O7990	O	0.809621	0.209160	0.542725
	O7991	O	0.808593	0.291116	0.512609
	O7992	O	0.760867	0.291280	0.513565
	O7993	O	0.828586	0.208627	0.544699
	O7994	O	0.828565	0.290606	0.513167
	O7995	O	0.872144	0.290745	0.480383
	O7996	O	0.766076	0.208810	0.575643
	O7997	O	0.808589	0.459470	0.512710
	O7998	O	0.760877	0.459608	0.513627
	O7999	O	0.872105	0.458961	0.480223
	O8000	O	0.828548	0.458890	0.512983
	O8001	O	0.866222	0.208750	0.606423
	O8002	O	0.756162	0.374789	0.578793
	O8003	O	0.881733	0.124534	0.476506
	C8004	C	0.851324	0.213918	0.581341
	C8005	C	0.855135	0.124727	0.587660
	C8006	C	0.851348	0.035621	0.581296
	C8007	C	0.843867	0.035720	0.568975
	C8008	C	0.840001	0.124767	0.562760
	C8009	C	0.843840	0.213910	0.569032
	C8010	C	0.831858	0.124759	0.549663
	C8011	C	0.863093	0.124817	0.601201
	C8012	C	0.806022	0.125111	0.545689
	C8013	C	0.796731	0.124859	0.553143
	C8014	C	0.792200	0.214475	0.556129
	C8015	C	0.783452	0.214257	0.562290
	C8016	C	0.779019	0.124527	0.565590
	C8017	C	0.783554	0.034817	0.562708
	C8018	C	0.792309	0.035103	0.556545
	C8019	C	0.769711	0.124716	0.572829
	C8020	C	0.804542	0.375197	0.512377
	C8021	C	0.794298	0.375094	0.512074
	C8022	C	0.789465	0.465078	0.512743
	C8023	C	0.780034	0.464874	0.513783
	C8024	C	0.775172	0.375158	0.514129
	C8025	C	0.780009	0.285173	0.513506
	C8026	C	0.789445	0.285223	0.512489
	C8027	C	0.764908	0.375395	0.513814
	C8028	C	0.832233	0.374606	0.510322
	C8029	C	0.841518	0.374753	0.503122
	C8030	C	0.846062	0.285190	0.500256
	C8031	C	0.854800	0.284942	0.494068
	C8032	C	0.859249	0.374535	0.490681
	C8033	C	0.854726	0.464102	0.493700
	C8034	C	0.845990	0.464371	0.499870
	C8035	C	0.868499	0.374761	0.483207
	H8036	H	0.858193	0.215021	0.491812
	H8037	H	0.842671	0.215906	0.502877
	H8038	H	0.854156	0.283141	0.586243
	H8039	H	0.840971	0.282978	0.564228
	H8040	H	0.817877	0.124232	0.504254
	H8041	H	0.819018	0.374248	0.551117
	H8042	H	0.755208	0.375023	0.566676
	H8043	H	0.881585	0.124931	0.488667
	H8044	H	0.793085	0.215350	0.511948
	H8045	H	0.776381	0.215075	0.513769
	H8046	H	0.780051	0.284000	0.564543
	H8047	H	0.795527	0.284337	0.553582
	H8048	H	0.776364	0.534810	0.514255
	H8049	H	0.793084	0.535254	0.512390
	H8050	H	0.795740	-0.034774	0.554307
	H8051	H	0.780233	-0.034825	0.565258
	H8052	H	0.841006	-0.033411	0.564144
	H8053	H	0.854207	-0.033445	0.586141
	H8054	H	0.842622	0.534029	0.502146
	H8055	H	0.858105	0.533741	0.491166
	Al8056	Al	0.812498	-0.500141	0.687497
	Al8057	Al	0.812494	-0.250490	0.687526
	Al8058	Al	0.756572	-0.249949	0.590120
	Al8059	Al	0.756547	-0.500531	0.590019
	O8060	O	0.821251	-0.459071	0.706114
	O8061	O	0.813032	-0.375375	0.676492
	O8062	O	0.811983	-0.125330	0.698498
	O8063	O	0.858886	-0.459367	0.767976
	O8064	O	0.802440	-0.459690	0.700603
	O8065	O	0.760029	-0.459559	0.736913
	O8066	O	0.802424	-0.291163	0.700552
	O8067	O	0.803776	-0.209375	0.668773
	O8068	O	0.766121	-0.209320	0.607054
	O8069	O	0.821210	-0.290870	0.706258
	O8070	O	0.822544	-0.209514	0.674461
	O8071	O	0.864945	-0.209683	0.638038
	O8072	O	0.760013	-0.291215	0.736930
	O8073	O	0.803759	-0.041515	0.668776
	O8074	O	0.766099	-0.041476	0.607086
	O8075	O	0.864970	-0.041607	0.638131
	O8076	O	0.822563	-0.041303	0.674313
	O8077	O	0.858926	-0.291311	0.767888
	O8078	O	0.750467	-0.125250	0.738932
	O8079	O	0.874532	-0.375182	0.636133
	C8080	C	0.843641	-0.286174	0.743588
	C8081	C	0.847534	-0.375144	0.749755
	C8082	C	0.843705	-0.464261	0.743419
	C8083	C	0.836237	-0.464253	0.731080
	C8084	C	0.832367	-0.375181	0.724865
	C8085	C	0.836169	-0.286032	0.731265
	C8086	C	0.824372	-0.375022	0.711390
	C8087	C	0.855663	-0.375310	0.762919
	C8088	C	0.798873	-0.375507	0.703564
	C8089	C	0.789802	-0.375513	0.711508
	C8090	C	0.785469	-0.286087	0.715037
	C8091	C	0.776981	-0.285936	0.722245
	C8092	C	0.772673	-0.375292	0.725955
	C8093	C	0.777031	-0.464837	0.722468
	C8094	C	0.785502	-0.465034	0.715247
	C8095	C	0.763599	-0.375357	0.733964
	C8096	C	0.800628	-0.125472	0.663556
	C8097	C	0.792661	-0.125507	0.650009
	C8098	C	0.788844	-0.036680	0.643687
	C8099	C	0.781371	-0.036749	0.631395
	C8100	C	0.777519	-0.125429	0.625128
	C8101	C	0.781351	-0.214343	0.631430
	C8102	C	0.788815	-0.214461	0.643730
	C8103	C	0.769367	-0.125449	0.612029
	C8104	C	0.826114	-0.125585	0.671385
	C8105	C	0.835198	-0.125689	0.663465
	C8106	C	0.839509	-0.214876	0.659772
	C8107	C	0.847972	-0.214811	0.652577
	C8108	C	0.852309	-0.125817	0.649011
	C8109	C	0.848017	-0.036579	0.652739
	C8110	C	0.839532	-0.036549	0.659905
	C8111	C	0.861397	-0.125602	0.641101
	H8112	H	0.851254	-0.283725	0.649719
	H8113	H	0.836219	-0.283717	0.662597
	H8114	H	0.846487	-0.217071	0.748489
	H8115	H	0.833244	-0.217010	0.726564
	H8116	H	0.813631	-0.375341	0.664462
	H8117	H	0.811454	-0.125910	0.710483
	H8118	H	0.750898	-0.124968	0.726870
	H8119	H	0.873960	-0.375139	0.648107
	H8120	H	0.791683	-0.283402	0.648591
	H8121	H	0.778452	-0.283309	0.626668
	H8122	H	0.773661	-0.216978	0.725104
	H8123	H	0.788768	-0.216991	0.712153
	H8124	H	0.778504	0.032288	0.626557
	H8125	H	0.791736	0.032045	0.648525
	H8126	H	0.788813	-0.534143	0.712508
	H8127	H	0.773774	-0.534067	0.725463
	H8128	H	0.833371	-0.533047	0.726253
	H8129	H	0.846572	-0.533273	0.748206
	H8130	H	0.836217	0.032119	0.662823
	H8131	H	0.851361	0.032358	0.649976
	Al8132	Al	0.812537	-0.000425	0.687390
	Al8133	Al	0.812482	0.249742	0.687424
	Al8134	Al	0.756553	0.250384	0.590127
	Al8135	Al	0.756571	-0.000450	0.590181
	O8136	O	0.821285	0.041167	0.706074
	O8137	O	0.813052	0.124704	0.676389
	O8138	O	0.812013	0.374768	0.698449
	O8139	O	0.858898	0.040998	0.768018
	O8140	O	0.802484	0.040752	0.700523
	O8141	O	0.760071	0.040970	0.736949
	O8142	O	0.802461	0.208930	0.700528
	O8143	O	0.803718	0.290111	0.668752
	O8144	O	0.766043	0.290472	0.607135
	O8145	O	0.821248	0.209182	0.706146
	O8146	O	0.822510	0.291016	0.674286
	O8147	O	0.864944	0.290803	0.638246
	O8148	O	0.760046	0.209178	0.736831
	O8149	O	0.803722	0.458608	0.668753
	O8150	O	0.766133	0.458482	0.606974
	O8151	O	0.865000	0.459088	0.638186
	O8152	O	0.822526	0.459376	0.674357
	O8153	O	0.858868	0.208999	0.768010
	O8154	O	0.750484	0.374708	0.738997
	O8155	O	0.874453	0.124421	0.636022
	C8156	C	0.843621	0.214060	0.743674
	C8157	C	0.847493	0.125100	0.749883
	C8158	C	0.843674	0.036257	0.743539
	C8159	C	0.836203	0.036261	0.731210
	C8160	C	0.832354	0.125220	0.724923
	C8161	C	0.836147	0.214073	0.731347
	C8162	C	0.824407	0.125231	0.711377
	C8163	C	0.855644	0.124858	0.762954
	C8164	C	0.798909	0.124668	0.703541
	C8165	C	0.789838	0.124722	0.711516
	C8166	C	0.785489	0.213833	0.715012
	C8167	C	0.777009	0.213978	0.722247
	C8168	C	0.772723	0.124862	0.726057
	C8169	C	0.777070	0.035661	0.722507
	C8170	C	0.785553	0.035557	0.715262
	C8171	C	0.763623	0.125107	0.733930
	C8172	C	0.800568	0.374381	0.663588
	C8173	C	0.792594	0.374636	0.650086
	C8174	C	0.788797	0.463589	0.643695
	C8175	C	0.781337	0.463713	0.631407
	C8176	C	0.777450	0.374674	0.625193
	C8177	C	0.781278	0.285741	0.631504
	C8178	C	0.788736	0.285421	0.643807
	C8179	C	0.769306	0.374497	0.612073
	C8180	C	0.826081	0.375137	0.671370
	C8181	C	0.835172	0.375319	0.663510
	C8182	C	0.839504	0.286009	0.659966
	C8183	C	0.848008	0.286011	0.652778
	C8184	C	0.852324	0.375570	0.649133
	C8185	C	0.848012	0.464876	0.652807
	C8186	C	0.839502	0.464822	0.659913
	C8187	C	0.861413	0.375049	0.641232
	H8188	H	0.851330	0.217038	0.649981
	H8189	H	0.836206	0.217318	0.662865
	H8190	H	0.846478	0.283234	0.748468
	H8191	H	0.833233	0.283026	0.726576
	H8192	H	0.813643	0.124919	0.664382
	H8193	H	0.811590	0.374254	0.710495
	H8194	H	0.751200	0.374539	0.726950
	H8195	H	0.874028	0.124471	0.648096
	H8196	H	0.791578	0.216740	0.648749
	H8197	H	0.778347	0.216840	0.626701
	H8198	H	0.773720	0.283094	0.725003
	H8199	H	0.788732	0.282693	0.712018
	H8200	H	0.778489	0.532506	0.626539
	H8201	H	0.791720	0.532394	0.648494
	H8202	H	0.788829	-0.033274	0.712419
	H8203	H	0.773803	-0.033192	0.725460
	H8204	H	0.833359	-0.032765	0.726338
	H8205	H	0.846599	-0.032802	0.748269
	H8206	H	0.836232	0.533972	0.662792
	H8207	H	0.851319	0.533988	0.650062
	Al8208	Al	0.805905	-0.501017	0.847393
	Al8209	Al	0.805952	-0.249724	0.847373
	Al8210	Al	0.749982	-0.250323	0.749997
	Al8211	Al	0.749958	-0.500081	0.749983
	O8212	O	0.816396	-0.459761	0.862415
	O8213	O	0.805850	-0.375575	0.836083
	O8214	O	0.806274	-0.125575	0.858628
	O8215	O	0.864126	-0.459058	0.861425
	O8216	O	0.796443	-0.459727	0.862133
	O8217	O	0.752889	-0.459306	0.894811
	O8218	O	0.796457	-0.291307	0.861968
	O8219	O	0.796422	-0.209594	0.830380
	O8220	O	0.758708	-0.209643	0.768664
	O8221	O	0.816436	-0.291314	0.862277
	O8222	O	0.815387	-0.209325	0.832242
	O8223	O	0.858933	-0.209789	0.799451
	O8224	O	0.752878	-0.290993	0.894808
	O8225	O	0.796354	-0.041687	0.830555
	O8226	O	0.758723	-0.041661	0.768637
	O8227	O	0.858968	-0.041779	0.799575
	O8228	O	0.815388	-0.040975	0.832323
	O8229	O	0.864121	-0.290645	0.861391
	O8230	O	0.743360	-0.125048	0.898679
	O8231	O	0.868817	-0.375251	0.796197
	C8232	C	0.844960	-0.285393	0.861329
	C8233	C	0.849826	-0.375026	0.860737
	C8234	C	0.844988	-0.464977	0.861128
	C8235	C	0.835554	-0.465015	0.862206
	C8236	C	0.830706	-0.375259	0.862898
	C8237	C	0.835535	-0.285277	0.862381
	C8238	C	0.820465	-0.375596	0.862562
	C8239	C	0.860066	-0.374906	0.861192
	C8240	C	0.792788	-0.375405	0.864784
	C8241	C	0.783485	-0.375167	0.872005
	C8242	C	0.779012	-0.285455	0.875113
	C8243	C	0.770259	-0.285216	0.881266
	C8244	C	0.765766	-0.374978	0.884390
	C8245	C	0.770227	-0.464677	0.881177
	C8246	C	0.778982	-0.464812	0.875026
	C8247	C	0.756493	-0.375122	0.891888
	C8248	C	0.793143	-0.125514	0.825444
	C8249	C	0.785004	-0.125431	0.812283
	C8250	C	0.781080	-0.036624	0.806142
	C8251	C	0.773603	-0.036607	0.793814
	C8252	C	0.769844	-0.125644	0.787350
	C8253	C	0.773714	-0.214516	0.793625
	C8254	C	0.781182	-0.214408	0.805946
	C8255	C	0.761858	-0.125724	0.773858
	C8256	C	0.819019	-0.125230	0.829358
	C8257	C	0.828256	-0.125405	0.821879
	C8258	C	0.832714	-0.215074	0.818648
	C8259	C	0.841457	-0.215084	0.812501
	C8260	C	0.845971	-0.125571	0.809471
	C8261	C	0.841483	-0.035830	0.812545
	C8262	C	0.832735	-0.035858	0.818680
	C8263	C	0.855282	-0.125794	0.802237
	H8264	H	0.844819	-0.284999	0.809997
	H8265	H	0.829327	-0.284792	0.820981
	H8266	H	0.848614	-0.215363	0.860926
	H8267	H	0.831916	-0.215170	0.862850
	H8268	H	0.805869	-0.375867	0.823804
	H8269	H	0.807069	-0.125698	0.870791
	H8270	H	0.743384	-0.124272	0.886492
	H8271	H	0.869710	-0.374919	0.808290
	H8272	H	0.784102	-0.283500	0.810701
	H8273	H	0.770847	-0.283351	0.788778
	H8274	H	0.766922	-0.215320	0.883689
	H8275	H	0.782401	-0.215915	0.872633
	H8276	H	0.770652	0.032297	0.789098
	H8277	H	0.783906	0.032292	0.811048
	H8278	H	0.782337	-0.534625	0.872579
	H8279	H	0.766835	-0.534415	0.883522
	H8280	H	0.831887	-0.534751	0.862488
	H8281	H	0.848603	-0.535198	0.860578
	H8282	H	0.829344	0.033934	0.821030
	H8283	H	0.844876	0.033424	0.810057
	Al8284	Al	0.805931	-0.000933	0.847515
	Al8285	Al	0.805952	0.250121	0.847397
	Al8286	Al	0.749991	0.249923	0.750009
	Al8287	Al	0.750010	0.000020	0.749992
	O8288	O	0.816399	0.040815	0.862375
	O8289	O	0.805817	0.124538	0.836157
	O8290	O	0.806299	0.374580	0.858623
	O8291	O	0.864123	0.040896	0.861371
	O8292	O	0.796510	0.040542	0.862192
	O8293	O	0.752897	0.040564	0.894837
	O8294	O	0.796474	0.208699	0.862024
	O8295	O	0.796427	0.290790	0.830343
	O8296	O	0.758746	0.290990	0.768569
	O8297	O	0.816394	0.209216	0.862330
	O8298	O	0.815407	0.290601	0.832312
	O8299	O	0.858989	0.290633	0.799598
	O8300	O	0.752837	0.208791	0.894700
	O8301	O	0.796405	0.458798	0.830324
	O8302	O	0.758745	0.459281	0.768654
	O8303	O	0.858961	0.458972	0.799570
	O8304	O	0.815417	0.458816	0.832414
	O8305	O	0.864125	0.209040	0.861305
	O8306	O	0.743307	0.375172	0.898662
	O8307	O	0.868751	0.124787	0.796141
	C8308	C	0.844948	0.214953	0.861191
	C8309	C	0.849817	0.124967	0.860725
	C8310	C	0.844956	0.035241	0.861273
	C8311	C	0.835524	0.035221	0.862390
	C8312	C	0.830684	0.125223	0.862939
	C8313	C	0.835526	0.215120	0.862303
	C8314	C	0.820452	0.125091	0.862631
	C8315	C	0.860068	0.124951	0.861113
	C8316	C	0.792814	0.124758	0.864846
	C8317	C	0.783493	0.124759	0.871984
	C8318	C	0.778975	0.214405	0.874959
	C8319	C	0.770217	0.214422	0.881074
	C8320	C	0.765737	0.124902	0.884322
	C8321	C	0.770216	0.035283	0.881164
	C8322	C	0.778975	0.035286	0.875025
	C8323	C	0.756500	0.124779	0.891867
	C8324	C	0.793181	0.374552	0.825293
	C8325	C	0.785018	0.374500	0.812219
	C8326	C	0.781097	0.463525	0.806146
	C8327	C	0.773615	0.463570	0.793858
	C8328	C	0.769838	0.374717	0.787365
	C8329	C	0.773670	0.285658	0.793652
	C8330	C	0.781157	0.285672	0.805947
	C8331	C	0.761873	0.375058	0.773839
	C8332	C	0.819021	0.374785	0.829426
	C8333	C	0.828289	0.375180	0.821903
	C8334	C	0.832761	0.285408	0.818737
	C8335	C	0.841507	0.285317	0.812573
	C8336	C	0.845964	0.374949	0.809395
	C8337	C	0.841465	0.464584	0.812437
	C8338	C	0.832730	0.464868	0.818634
	C8339	C	0.855304	0.374880	0.802322
	H8340	H	0.844919	0.215515	0.810282
	H8341	H	0.829402	0.215532	0.821298
	H8342	H	0.848589	0.284896	0.860643
	H8343	H	0.831862	0.285053	0.862674
	H8344	H	0.805589	0.124468	0.823885
	H8345	H	0.807350	0.374246	0.870707
	H8346	H	0.743224	0.375896	0.886478
	H8347	H	0.869616	0.124569	0.808263
	H8348	H	0.784057	0.216856	0.810772
	H8349	H	0.770786	0.216878	0.788823
	H8350	H	0.766850	0.284301	0.883449
	H8351	H	0.782351	0.284029	0.872526
	H8352	H	0.770676	0.532736	0.789151
	H8353	H	0.783940	0.532286	0.811068
	H8354	H	0.782347	-0.034282	0.872649
	H8355	H	0.766864	-0.034642	0.883612
	H8356	H	0.831879	-0.034528	0.862764
	H8357	H	0.848599	-0.034409	0.860771
	H8358	H	0.829368	0.534472	0.820988
	H8359	H	0.844830	0.534325	0.810008
	Al8360	Al	0.812494	-0.499751	0.937524
	Al8361	Al	0.812508	-0.249653	0.937423
	Al8362	Al	0.743411	-0.250572	0.909931
	Al8363	Al	0.743433	-0.499479	0.909994
	O8364	O	0.823386	-0.458926	0.951001
	O8365	O	0.811696	-0.374985	0.926089
	O8366	O	0.813206	-0.124749	0.948787
	O8367	O	0.871113	-0.458920	0.950103
	O8368	O	0.803428	-0.458879	0.953486
	O8369	O	0.759005	-0.458929	0.983813
	O8370	O	0.803413	-0.290781	0.953440
	O8371	O	0.801575	-0.208782	0.923985
	O8372	O	0.753912	-0.209190	0.924896
	O8373	O	0.823419	-0.290581	0.950840
	O8374	O	0.821498	-0.208651	0.921278
	O8375	O	0.865969	-0.208822	0.890900
	O8376	O	0.759007	-0.290842	0.983914
	O8377	O	0.801586	-0.040562	0.923903
	O8378	O	0.753893	-0.040837	0.924980
	O8379	O	0.865910	-0.040716	0.890925
	O8380	O	0.821532	-0.040416	0.921263
	O8381	O	0.871071	-0.290653	0.950174
	O8382	O	0.749235	-0.124628	0.988550
	O8383	O	0.875778	-0.374776	0.886238
	C8384	C	0.851942	-0.284989	0.949957
	C8385	C	0.856794	-0.375052	0.949481
	C8386	C	0.851946	-0.465017	0.950005
	C8387	C	0.842529	-0.464989	0.951085
	C8388	C	0.837692	-0.375034	0.951586
	C8389	C	0.842522	-0.285029	0.951014
	C8390	C	0.827450	-0.374783	0.951216
	C8391	C	0.867051	-0.374827	0.949810
	C8392	C	0.799710	-0.374716	0.956240
	C8393	C	0.790272	-0.374787	0.963135
	C8394	C	0.785648	-0.285153	0.965907
	C8395	C	0.776723	-0.285148	0.971294
	C8396	C	0.772125	-0.374761	0.974097
	C8397	C	0.776727	-0.464468	0.971249
	C8398	C	0.785658	-0.464551	0.965870
	C8399	C	0.762719	-0.374851	0.981099
	C8400	C	0.797529	-0.124683	0.923697
	C8401	C	0.787278	-0.124597	0.923327
	C8402	C	0.782445	-0.034824	0.923830
	C8403	C	0.773002	-0.034980	0.924922
	C8404	C	0.768182	-0.124931	0.925475
	C8405	C	0.773017	-0.214691	0.924802
	C8406	C	0.782449	-0.214570	0.923744
	C8407	C	0.757938	-0.125011	0.925182
	C8408	C	0.825184	-0.124703	0.918435
	C8409	C	0.834652	-0.124936	0.911607
	C8410	C	0.839247	-0.214816	0.908807
	C8411	C	0.848188	-0.214924	0.903476
	C8412	C	0.852784	-0.125093	0.900615
	C8413	C	0.848190	-0.035246	0.903398
	C8414	C	0.839248	-0.035228	0.908731
	C8415	C	0.862258	-0.124937	0.893739
	H8416	H	0.851603	-0.284933	0.901446
	H8417	H	0.835766	-0.284855	0.910687
	H8418	H	0.855567	-0.215053	0.949501
	H8419	H	0.838848	-0.215169	0.951444
	H8420	H	0.810313	-0.375429	0.914027
	H8421	H	0.814146	-0.124251	0.960880
	H8422	H	0.748289	-0.124334	0.976374
	H8423	H	0.876872	-0.375059	0.898234
	H8424	H	0.786086	-0.284671	0.923332
	H8425	H	0.769391	-0.284916	0.925228
	H8426	H	0.773290	-0.215022	0.973258
	H8427	H	0.789061	-0.214898	0.963740
	H8428	H	0.769377	0.034933	0.925382
	H8429	H	0.786077	0.035150	0.923518
	H8430	H	0.789063	-0.534766	0.963716
	H8431	H	0.773270	-0.534630	0.973214
	H8432	H	0.838903	-0.534998	0.951598
	H8433	H	0.855605	-0.534792	0.949612
	H8434	H	0.835791	0.034882	0.910539
	H8435	H	0.851617	0.034764	0.901298
	Al8436	Al	0.812464	0.000434	0.937342
	Al8437	Al	0.812497	0.250296	0.937483
	Al8438	Al	0.743434	0.249383	0.909851
	Al8439	Al	0.743455	0.000259	0.909935
	O8440	O	0.823399	0.041169	0.950709
	O8441	O	0.811680	0.125412	0.926059
	O8442	O	0.813282	0.375257	0.948881
	O8443	O	0.871113	0.041100	0.950061
	O8444	O	0.803447	0.041174	0.953526
	O8445	O	0.759022	0.041155	0.983870
	O8446	O	0.803440	0.209096	0.953530
	O8447	O	0.801626	0.291104	0.924060
	O8448	O	0.753878	0.290598	0.924820
	O8449	O	0.823413	0.209504	0.950861
	O8450	O	0.821529	0.291396	0.921406
	O8451	O	0.865948	0.290948	0.890937
	O8452	O	0.758991	0.209240	0.983800
	O8453	O	0.801597	0.459495	0.924086
	O8454	O	0.753920	0.458771	0.924907
	O8455	O	0.865923	0.459220	0.890926
	O8456	O	0.821527	0.459439	0.921378
	O8457	O	0.871084	0.209407	0.950179
	O8458	O	0.749221	0.375643	0.988533
	O8459	O	0.875774	0.125108	0.886196
	C8460	C	0.851995	0.215003	0.949964
	C8461	C	0.856827	0.125107	0.949440
	C8462	C	0.851965	0.035234	0.949938
	C8463	C	0.842537	0.035253	0.950975
	C8464	C	0.837709	0.125177	0.951518
	C8465	C	0.842572	0.215021	0.951010
	C8466	C	0.827445	0.125254	0.951014
	C8467	C	0.867053	0.125076	0.949851
	C8468	C	0.799758	0.125169	0.956298
	C8469	C	0.790296	0.125173	0.963205
	C8470	C	0.785683	0.214936	0.965945
	C8471	C	0.776749	0.215145	0.971282
	C8472	C	0.772165	0.125357	0.974119
	C8473	C	0.776744	0.035621	0.971272
	C8474	C	0.785673	0.035487	0.965950
	C8475	C	0.762690	0.125211	0.981036
	C8476	C	0.797566	0.375178	0.923754
	C8477	C	0.787320	0.374773	0.923326
	C8478	C	0.782457	0.464513	0.923717
	C8479	C	0.773030	0.464284	0.924778
	C8480	C	0.768190	0.374476	0.925395
	C8481	C	0.773053	0.284702	0.924862
	C8482	C	0.782479	0.284827	0.923812
	C8483	C	0.757947	0.374546	0.925136
	C8484	C	0.825230	0.375374	0.918617
	C8485	C	0.834664	0.375074	0.911593
	C8486	C	0.839261	0.285232	0.908785
	C8487	C	0.848168	0.285256	0.903399
	C8488	C	0.852791	0.374880	0.900606
	C8489	C	0.848183	0.464684	0.903465
	C8490	C	0.839282	0.464651	0.908860
	C8491	C	0.862237	0.375094	0.893700
	H8492	H	0.851593	0.214982	0.901292
	H8493	H	0.835817	0.215278	0.910821
	H8494	H	0.855655	0.284862	0.949645
	H8495	H	0.838920	0.285036	0.951434
	H8496	H	0.810600	0.125730	0.913934
	H8497	H	0.814416	0.375638	0.960994
	H8498	H	0.748365	0.375784	0.976474
	H8499	H	0.876733	0.125463	0.898376
	H8500	H	0.786153	0.215122	0.923409
	H8501	H	0.769433	0.214853	0.925343
	H8502	H	0.773322	0.285373	0.973303
	H8503	H	0.789109	0.285244	0.963955
	H8504	H	0.769382	0.534175	0.925160
	H8505	H	0.786094	0.534700	0.923256
	H8506	H	0.789100	-0.034873	0.963988
	H8507	H	0.773313	-0.034606	0.973320
	H8508	H	0.838880	-0.034410	0.951397
	H8509	H	0.855609	-0.034702	0.949594
	H8510	H	0.835839	0.534737	0.911008
	H8511	H	0.851619	0.534793	0.901418
	Al8512	Al	0.937461	-0.499851	0.062469
	Al8513	Al	0.937469	-0.250170	0.062544
	Al8514	Al	0.881579	-0.249557	-0.034857
	Al8515	Al	0.881571	-0.500207	-0.034936
	O8516	O	0.946199	-0.459049	0.081264
	O8517	O	0.938059	-0.374930	0.051463
	O8518	O	0.936958	-0.124967	0.073531
	O8519	O	0.983924	-0.459140	0.142902
	O8520	O	0.927394	-0.459128	0.075445
	O8521	O	0.885036	-0.458955	0.111899
	O8522	O	0.927431	-0.290897	0.075595
	O8523	O	0.928759	-0.209344	0.043852
	O8524	O	0.891136	-0.208962	-0.017905
	O8525	O	0.946209	-0.291129	0.081271
	O8526	O	0.947462	-0.208855	0.049339
	O8527	O	0.989896	-0.209068	0.013002
	O8528	O	0.885068	-0.290667	0.111911
	O8529	O	0.928847	-0.040976	0.043694
	O8530	O	0.891104	-0.041018	-0.017916
	O8531	O	0.989830	-0.040758	0.012845
	O8532	O	0.947506	-0.040527	0.049452
	O8533	O	0.983896	-0.291286	0.142987
	O8534	O	0.875508	-0.125089	0.113921
	O8535	O	0.999478	-0.374970	0.011056
	C8536	C	0.968704	-0.286208	0.118462
	C8537	C	0.972528	-0.375108	0.124748
	C8538	C	0.968639	-0.463746	0.118588
	C8539	C	0.961137	-0.463913	0.106291
	C8540	C	0.957347	-0.374912	0.099946
	C8541	C	0.961207	-0.286100	0.106151
	C8542	C	0.949350	-0.375021	0.086446
	C8543	C	0.980672	-0.375087	0.137898
	C8544	C	0.923840	-0.375076	0.078494
	C8545	C	0.914786	-0.375097	0.086437
	C8546	C	0.910462	-0.285981	0.089994
	C8547	C	0.901996	-0.285955	0.097200
	C8548	C	0.897678	-0.375002	0.100909
	C8549	C	0.902000	-0.464154	0.097306
	C8550	C	0.910476	-0.464157	0.090071
	C8551	C	0.888606	-0.374810	0.108881
	C8552	C	0.925675	-0.125101	0.038542
	C8553	C	0.917686	-0.124868	0.025049
	C8554	C	0.913931	-0.035738	0.018561
	C8555	C	0.906430	-0.035800	0.006296
	C8556	C	0.902506	-0.124936	0.000212
	C8557	C	0.906310	-0.214229	0.006579
	C8558	C	0.913809	-0.214144	0.018859
	C8559	C	0.894332	-0.125075	-0.012898
	C8560	C	0.951052	-0.124721	0.046417
	C8561	C	0.960158	-0.125069	0.038536
	C8562	C	0.964419	-0.214261	0.034724
	C8563	C	0.972916	-0.214178	0.027508
	C8564	C	0.977255	-0.124882	0.023962
	C8565	C	0.972946	-0.035713	0.027633
	C8566	C	0.964480	-0.035995	0.034898
	C8567	C	0.986326	-0.125049	0.016004
	H8568	H	0.976217	-0.282950	0.024576
	H8569	H	0.961098	-0.283122	0.037489
	H8570	H	0.971589	-0.217351	0.123134
	H8571	H	0.958311	-0.217216	0.101343
	H8572	H	0.938806	-0.375514	0.039455
	H8573	H	0.936425	-0.124870	0.085586
	H8574	H	0.876066	-0.125452	0.101892
	H8575	H	0.999129	-0.373841	0.023131
	H8576	H	0.916673	-0.283155	0.023718
	H8577	H	0.903367	-0.283155	0.001917
	H8578	H	0.898701	-0.217116	0.100001
	H8579	H	0.913727	-0.216973	0.087000
	H8580	H	0.903582	0.033295	0.001358
	H8581	H	0.916910	0.033719	0.023180
	H8582	H	0.913764	-0.533001	0.087118
	H8583	H	0.898703	-0.532841	0.100227
	H8584	H	0.958238	-0.533169	0.101641
	H8585	H	0.971490	-0.532688	0.123393
	H8586	H	0.961200	0.032748	0.037779
	H8587	H	0.976223	0.033499	0.024869
	Al8588	Al	0.937473	0.000072	0.062523
	Al8589	Al	0.937462	0.250307	0.062491
	Al8590	Al	0.881549	0.250726	-0.034936
	Al8591	Al	0.881557	-0.000499	-0.034932
	O8592	O	0.946159	0.040948	0.081360
	O8593	O	0.937953	0.125196	0.051507
	O8594	O	0.936954	0.375250	0.073511
	O8595	O	0.983884	0.040888	0.142929
	O8596	O	0.927404	0.041050	0.075541
	O8597	O	0.885037	0.041082	0.111834
	O8598	O	0.927435	0.209461	0.075611
	O8599	O	0.928719	0.291276	0.043799
	O8600	O	0.891107	0.291345	-0.018049
	O8601	O	0.946207	0.209232	0.081238
	O8602	O	0.947540	0.290526	0.049419
	O8603	O	0.989904	0.291031	0.013015
	O8604	O	0.885002	0.209248	0.111805
	O8605	O	0.928766	0.459517	0.043732
	O8606	O	0.891100	0.459195	-0.018078
	O8607	O	0.989902	0.459457	0.013060
	O8608	O	0.947518	0.458936	0.049416
	O8609	O	0.983956	0.208890	0.142745
	O8610	O	0.875530	0.375123	0.113954
	O8611	O	0.999424	0.125126	0.010938
	C8612	C	0.968699	0.214074	0.118426
	C8613	C	0.972530	0.124940	0.124722
	C8614	C	0.968649	0.035906	0.118511
	C8615	C	0.961151	0.036017	0.106252
	C8616	C	0.957320	0.125120	0.099961
	C8617	C	0.961197	0.214139	0.106149
	C8618	C	0.949329	0.125002	0.086460
	C8619	C	0.980678	0.124984	0.137844
	C8620	C	0.923854	0.125289	0.078551
	C8621	C	0.914784	0.125374	0.086467
	C8622	C	0.910455	0.214682	0.090106
	C8623	C	0.901972	0.214556	0.097275
	C8624	C	0.897638	0.125188	0.100836
	C8625	C	0.901932	0.036178	0.097094
	C8626	C	0.910408	0.036181	0.089931
	C8627	C	0.888576	0.125274	0.108830
	C8628	C	0.925618	0.375476	0.038519
	C8629	C	0.917628	0.375580	0.025021
	C8630	C	0.913853	0.464678	0.018572
	C8631	C	0.906363	0.464491	0.006265
	C8632	C	0.902477	0.375425	0.000089
	C8633	C	0.906278	0.286386	0.006458
	C8634	C	0.913765	0.286579	0.018784
	C8635	C	0.894320	0.375215	-0.013009
	C8636	C	0.951082	0.374727	0.046387
	C8637	C	0.960169	0.374897	0.038467
	C8638	C	0.964488	0.285728	0.034829
	C8639	C	0.972968	0.286026	0.027643
	C8640	C	0.977269	0.375285	0.023973
	C8641	C	0.972963	0.464577	0.027666
	C8642	C	0.964477	0.464219	0.034842
	C8643	C	0.986357	0.375350	0.016064
	H8644	H	0.976284	0.217213	0.024813
	H8645	H	0.961198	0.217059	0.037657
	H8646	H	0.971639	0.283060	0.123178
	H8647	H	0.958344	0.283383	0.101274
	H8648	H	0.938459	0.124503	0.039507
	H8649	H	0.936422	0.374898	0.085619
	H8650	H	0.876086	0.375157	0.101945
	H8651	H	0.998974	0.126062	0.023051
	H8652	H	0.916605	0.217158	0.023699
	H8653	H	0.903360	0.217175	0.001776
	H8654	H	0.898675	0.283192	0.100152
	H8655	H	0.913786	0.283389	0.087328
	H8656	H	0.903494	0.533601	0.001374
	H8657	H	0.916777	0.533959	0.023276
	H8658	H	0.913680	-0.032619	0.086955
	H8659	H	0.898614	-0.032726	0.099832
	H8660	H	0.958231	-0.032801	0.101448
	H8661	H	0.971514	-0.033229	0.123261
	H8662	H	0.961177	0.533102	0.037717
	H8663	H	0.976289	0.533505	0.024850
	Al8664	Al	0.930850	-0.500325	0.222420
	Al8665	Al	0.930897	-0.249552	0.222321
	Al8666	Al	0.874980	-0.249890	0.124958
	Al8667	Al	0.874972	-0.499933	0.124985
	O8668	O	0.941366	-0.459336	0.237286
	O8669	O	0.930816	-0.374967	0.211016
	O8670	O	0.931287	-0.125474	0.233697
	O8671	O	0.989094	-0.458939	0.236610
	O8672	O	0.921419	-0.459170	0.237023
	O8673	O	0.877815	-0.459016	0.269713
	O8674	O	0.921460	-0.291222	0.237067
	O8675	O	0.921366	-0.209130	0.205369
	O8676	O	0.883710	-0.208892	0.143677
	O8677	O	0.941403	-0.290862	0.237185
	O8678	O	0.940348	-0.209184	0.207259
	O8679	O	0.983990	-0.209354	0.174656
	O8680	O	0.877893	-0.290867	0.269890
	O8681	O	0.921435	-0.041188	0.205380
	O8682	O	0.883713	-0.040791	0.143706
	O8683	O	0.983975	-0.040968	0.174590
	O8684	O	0.940416	-0.040891	0.207524
	O8685	O	0.989063	-0.290764	0.236623
	O8686	O	0.868329	-0.124973	0.273592
	O8687	O	0.993760	-0.375016	0.171246
	C8688	C	0.969944	-0.285246	0.236353
	C8689	C	0.974787	-0.375237	0.235813
	C8690	C	0.969936	-0.465291	0.236239
	C8691	C	0.960503	-0.465217	0.237272
	C8692	C	0.955668	-0.375165	0.237839
	C8693	C	0.960519	-0.285268	0.237371
	C8694	C	0.945427	-0.375144	0.237490
	C8695	C	0.985039	-0.375032	0.236310
	C8696	C	0.917760	-0.375037	0.239805
	C8697	C	0.908442	-0.375123	0.246940
	C8698	C	0.903970	-0.285542	0.250072
	C8699	C	0.895225	-0.285572	0.256223
	C8700	C	0.890728	-0.375153	0.259397
	C8701	C	0.895178	-0.464980	0.256124
	C8702	C	0.903923	-0.464812	0.249959
	C8703	C	0.881469	-0.374992	0.266862
	C8704	C	0.918191	-0.125034	0.200357
	C8705	C	0.910063	-0.124614	0.187132
	C8706	C	0.906203	-0.035735	0.180889
	C8707	C	0.898707	-0.035833	0.168603
	C8708	C	0.894856	-0.124831	0.162361
	C8709	C	0.898686	-0.213694	0.168688
	C8710	C	0.906179	-0.213398	0.180973
	C8711	C	0.886873	-0.124932	0.148849
	C8712	C	0.943978	-0.124905	0.204388
	C8713	C	0.953203	-0.125132	0.196732
	C8714	C	0.957686	-0.214980	0.193602
	C8715	C	0.966431	-0.215063	0.187448
	C8716	C	0.970937	-0.125351	0.184304
	C8717	C	0.966454	-0.035519	0.187384
	C8718	C	0.957710	-0.035432	0.193567
	C8719	C	0.980290	-0.125185	0.177249
	H8720	H	0.969836	-0.284884	0.185062
	H8721	H	0.954341	-0.284758	0.196132
	H8722	H	0.973601	-0.215435	0.236038
	H8723	H	0.956879	-0.215188	0.237897
	H8724	H	0.931038	-0.374821	0.198818
	H8725	H	0.932144	-0.125508	0.245794
	H8726	H	0.868444	-0.125254	0.261344
	H8727	H	0.994630	-0.375267	0.183417
	H8728	H	0.909034	-0.282181	0.185848
	H8729	H	0.895810	-0.282732	0.163947
	H8730	H	0.891883	-0.215969	0.258720
	H8731	H	0.907369	-0.215965	0.247739
	H8732	H	0.895849	0.032952	0.163737
	H8733	H	0.909088	0.033249	0.185713
	H8734	H	0.907303	-0.534300	0.247542
	H8735	H	0.891781	-0.534707	0.258531
	H8736	H	0.956868	-0.535297	0.237699
	H8737	H	0.973582	-0.535139	0.235897
	H8738	H	0.954345	0.034339	0.196079
	H8739	H	0.969830	0.033972	0.184957
	Al8740	Al	0.930923	-0.000596	0.222549
	Al8741	Al	0.930893	0.250450	0.222315
	Al8742	Al	0.874967	0.250161	0.124929
	Al8743	Al	0.875024	-0.000006	0.124941
	O8744	O	0.941348	0.040691	0.237585
	O8745	O	0.930796	0.124551	0.211178
	O8746	O	0.931256	0.374807	0.233587
	O8747	O	0.989128	0.041316	0.236387
	O8748	O	0.921437	0.040766	0.237108
	O8749	O	0.877865	0.040720	0.269811
	O8750	O	0.921426	0.209203	0.237081
	O8751	O	0.921379	0.290437	0.205301
	O8752	O	0.883662	0.290753	0.143691
	O8753	O	0.941376	0.209116	0.237169
	O8754	O	0.940274	0.291045	0.207077
	O8755	O	0.983935	0.290625	0.174605
	O8756	O	0.877783	0.208999	0.269599
	O8757	O	0.921405	0.458526	0.205277
	O8758	O	0.883695	0.458940	0.143746
	O8759	O	0.983924	0.458837	0.174657
	O8760	O	0.940348	0.459345	0.207283
	O8761	O	0.989046	0.209697	0.236591
	O8762	O	0.868269	0.375219	0.273637
	O8763	O	0.993788	0.124765	0.171105
	C8764	C	0.969920	0.214825	0.236172
	C8765	C	0.974784	0.124851	0.235751
	C8766	C	0.969949	0.034770	0.236313
	C8767	C	0.960518	0.034791	0.237427
	C8768	C	0.955666	0.124669	0.237933
	C8769	C	0.960484	0.214734	0.237277
	C8770	C	0.945423	0.124715	0.237663
	C8771	C	0.985042	0.125177	0.236192
	C8772	C	0.917767	0.124957	0.239840
	C8773	C	0.908432	0.125054	0.246934
	C8774	C	0.903924	0.214745	0.250000
	C8775	C	0.895159	0.214743	0.256100
	C8776	C	0.890688	0.124849	0.259254
	C8777	C	0.895160	0.035204	0.256003
	C8778	C	0.903907	0.035358	0.249867
	C8779	C	0.881439	0.124918	0.266773
	C8780	C	0.918144	0.374631	0.200300
	C8781	C	0.910033	0.374572	0.187115
	C8782	C	0.906137	0.463509	0.180903
	C8783	C	0.898636	0.463665	0.168656
	C8784	C	0.894801	0.374552	0.162378
	C8785	C	0.898690	0.285533	0.168606
	C8786	C	0.906193	0.285487	0.180850
	C8787	C	0.886813	0.374658	0.148919
	C8788	C	0.943943	0.375101	0.204293
	C8789	C	0.953200	0.374797	0.196803
	C8790	C	0.957701	0.284874	0.193724
	C8791	C	0.966459	0.284743	0.187609
	C8792	C	0.970961	0.374496	0.184522
	C8793	C	0.966433	0.464385	0.187422
	C8794	C	0.957681	0.464528	0.193551
	C8795	C	0.980276	0.374557	0.177360
	H8796	H	0.969855	0.215252	0.185301
	H8797	H	0.954334	0.215344	0.196151
	H8798	H	0.973541	0.284947	0.235634
	H8799	H	0.956833	0.284606	0.237751
	H8800	H	0.930735	0.124395	0.198957
	H8801	H	0.932071	0.374912	0.245663
	H8802	H	0.868134	0.374972	0.261409
	H8803	H	0.994687	0.124474	0.183195
	H8804	H	0.909082	0.216299	0.185713
	H8805	H	0.895813	0.216499	0.163711
	H8806	H	0.891803	0.284186	0.258531
	H8807	H	0.907346	0.284253	0.247688
	H8808	H	0.895728	0.532399	0.163884
	H8809	H	0.909006	0.532607	0.185756
	H8810	H	0.907273	-0.034361	0.247479
	H8811	H	0.891767	-0.034774	0.258383
	H8812	H	0.956892	-0.035260	0.237959
	H8813	H	0.973604	-0.035216	0.235846
	H8814	H	0.954292	0.534349	0.195903
	H8815	H	0.969840	0.534171	0.184939
	Al8816	Al	0.937441	-0.500405	0.312500
	Al8817	Al	0.937459	-0.250191	0.312400
	Al8818	Al	0.868379	-0.250492	0.284959
	Al8819	Al	0.868414	-0.499556	0.284974
	O8820	O	0.948346	-0.459636	0.325869
	O8821	O	0.936609	-0.375425	0.301088
	O8822	O	0.938188	-0.125267	0.323796
	O8823	O	0.996086	-0.459441	0.325159
	O8824	O	0.928378	-0.459384	0.328600
	O8825	O	0.883977	-0.458688	0.358910
	O8826	O	0.928386	-0.291031	0.328468
	O8827	O	0.926539	-0.209198	0.298935
	O8828	O	0.878867	-0.208964	0.299920
	O8829	O	0.948341	-0.291187	0.325915
	O8830	O	0.946512	-0.209873	0.296383
	O8831	O	0.990938	-0.208387	0.266172
	O8832	O	0.884043	-0.290537	0.359073
	O8833	O	0.926564	-0.040931	0.298917
	O8834	O	0.878841	-0.040534	0.299912
	O8835	O	0.990870	-0.040576	0.266019
	O8836	O	0.946499	-0.041933	0.296375
	O8837	O	0.996083	-0.290901	0.325175
	O8838	O	0.874190	-0.124847	0.363746
	O8839	O	1.000792	-0.374703	0.261444
	C8840	C	0.976927	-0.285375	0.325049
	C8841	C	0.981784	-0.375360	0.324649
	C8842	C	0.976959	-0.465501	0.325274
	C8843	C	0.967526	-0.465674	0.326329
	C8844	C	0.962658	-0.375560	0.326724
	C8845	C	0.967493	-0.285591	0.326113
	C8846	C	0.952397	-0.375385	0.326181
	C8847	C	0.992033	-0.375168	0.324900
	C8848	C	0.924685	-0.374990	0.331251
	C8849	C	0.915254	-0.374901	0.338233
	C8850	C	0.910654	-0.285035	0.340978
	C8851	C	0.901729	-0.284947	0.346356
	C8852	C	0.897140	-0.374629	0.349229
	C8853	C	0.901703	-0.464415	0.346383
	C8854	C	0.910642	-0.464490	0.341026
	C8855	C	0.887689	-0.374644	0.356172
	C8856	C	0.922514	-0.124941	0.298658
	C8857	C	0.912281	-0.124836	0.298272
	C8858	C	0.907451	-0.034877	0.298765
	C8859	C	0.898031	-0.035087	0.299830
	C8860	C	0.893174	-0.124864	0.300414
	C8861	C	0.898013	-0.214883	0.299907
	C8862	C	0.907433	-0.214811	0.298810
	C8863	C	0.882910	-0.124680	0.300206
	C8864	C	0.950196	-0.125776	0.293666
	C8865	C	0.959628	-0.125446	0.286663
	C8866	C	0.964239	-0.215041	0.283807
	C8867	C	0.973182	-0.214932	0.278465
	C8868	C	0.977773	-0.124897	0.275806
	C8869	C	0.973149	-0.035304	0.278610
	C8870	C	0.964214	-0.035431	0.283955
	C8871	C	0.987196	-0.124579	0.268833
	H8872	H	0.976586	-0.285039	0.276337
	H8873	H	0.960826	-0.285343	0.285812
	H8874	H	0.980534	-0.215068	0.324563
	H8875	H	0.963812	-0.215723	0.326481
	H8876	H	0.935324	-0.376371	0.289000
	H8877	H	0.939092	-0.125992	0.335943
	H8878	H	0.873060	-0.125671	0.351585
	H8879	H	1.002006	-0.374332	0.273456
	H8880	H	0.911097	-0.284571	0.298414
	H8881	H	0.894368	-0.284853	0.300419
	H8882	H	0.898336	-0.214550	0.348503
	H8883	H	0.914097	-0.214800	0.339033
	H8884	H	0.894387	0.034810	0.300302
	H8885	H	0.911083	0.035300	0.298314
	H8886	H	0.914065	-0.534767	0.339115
	H8887	H	0.898287	-0.534207	0.348565
	H8888	H	0.963907	-0.535861	0.326829
	H8889	H	0.980629	-0.535212	0.324894
	H8890	H	0.960788	0.034740	0.286036
	H8891	H	0.976553	0.035318	0.276533
	Al8892	Al	0.937480	-0.000279	0.312499
	Al8893	Al	0.937474	0.249847	0.312489
	Al8894	Al	0.868395	0.249343	0.284884
	Al8895	Al	0.868385	0.000279	0.284809
	O8896	O	0.948403	0.040637	0.325786
	O8897	O	0.936684	0.124924	0.301127
	O8898	O	0.938236	0.374643	0.323834
	O8899	O	0.996081	0.041323	0.325198
	O8900	O	0.928420	0.040886	0.328577
	O8901	O	0.883998	0.041197	0.358987
	O8902	O	0.928454	0.208756	0.328619
	O8903	O	0.926558	0.290664	0.299079
	O8904	O	0.878870	0.290572	0.299888
	O8905	O	0.948378	0.208717	0.325948
	O8906	O	0.946532	0.290254	0.296390
	O8907	O	0.990954	0.291351	0.266101
	O8908	O	0.884008	0.209350	0.358841
	O8909	O	0.926562	0.458763	0.299043
	O8910	O	0.878894	0.458921	0.299928
	O8911	O	0.990896	0.459430	0.266079
	O8912	O	0.946521	0.458345	0.296470
	O8913	O	0.996090	0.209604	0.325264
	O8914	O	0.874207	0.375092	0.363703
	O8915	O	1.000784	0.125268	0.261308
	C8916	C	0.976944	0.215071	0.325221
	C8917	C	0.981792	0.125464	0.324614
	C8918	C	0.976967	0.035457	0.325188
	C8919	C	0.967539	0.035086	0.326213
	C8920	C	0.962693	0.124796	0.326660
	C8921	C	0.967523	0.214690	0.326217
	C8922	C	0.952440	0.124733	0.326212
	C8923	C	0.992042	0.125421	0.324954
	C8924	C	0.924745	0.124779	0.331415
	C8925	C	0.915312	0.125021	0.338362
	C8926	C	0.910719	0.214848	0.341149
	C8927	C	0.901772	0.215005	0.346476
	C8928	C	0.897150	0.125235	0.349255
	C8929	C	0.901772	0.035332	0.346541
	C8930	C	0.910709	0.035244	0.341221
	C8931	C	0.887711	0.125227	0.356170
	C8932	C	0.922512	0.374664	0.298822
	C8933	C	0.912258	0.374661	0.298294
	C8934	C	0.907428	0.464584	0.298778
	C8935	C	0.897988	0.464608	0.299826
	C8936	C	0.893160	0.374634	0.300441
	C8937	C	0.897991	0.284838	0.299852
	C8938	C	0.907421	0.284709	0.298800
	C8939	C	0.882923	0.374678	0.300124
	C8940	C	0.950224	0.374394	0.293675
	C8941	C	0.959668	0.374367	0.286755
	C8942	C	0.964265	0.284567	0.283836
	C8943	C	0.973192	0.284668	0.278455
	C8944	C	0.977784	0.374640	0.275716
	C8945	C	0.973164	0.464416	0.278559
	C8946	C	0.964245	0.464296	0.283942
	C8947	C	0.987231	0.375175	0.268863
	H8948	H	0.976644	0.214529	0.276344
	H8949	H	0.960815	0.214417	0.285798
	H8950	H	0.980594	0.285015	0.324729
	H8951	H	0.963867	0.284686	0.326503
	H8952	H	0.935678	0.124505	0.289091
	H8953	H	0.939173	0.375042	0.336005
	H8954	H	0.873021	0.375250	0.351730
	H8955	H	1.001916	0.124602	0.273368
	H8956	H	0.911021	0.214580	0.298375
	H8957	H	0.894349	0.215033	0.300189
	H8958	H	0.898319	0.285099	0.348451
	H8959	H	0.914143	0.285110	0.339093
	H8960	H	0.894363	0.534868	0.300177
	H8961	H	0.911071	0.534619	0.298352
	H8962	H	0.914167	-0.034831	0.339237
	H8963	H	0.898364	-0.034789	0.348542
	H8964	H	0.963887	-0.034803	0.326567
	H8965	H	0.980602	-0.034559	0.324696
	H8966	H	0.960798	0.534377	0.285980
	H8967	H	0.976592	0.534648	0.276466
	Al8968	Al	0.944057	-0.499817	0.402640
	Al8969	Al	0.944101	-0.250772	0.402772
	Al8970	Al	0.875000	-0.249817	0.375149
	Al8971	Al	0.875006	-0.499960	0.375089
	O8972	O	0.953579	-0.459087	0.419694
	O8973	O	0.943735	-0.375314	0.391462
	O8974	O	0.944221	-0.125228	0.414074
	O8975	O	0.991298	-0.459523	0.481400
	O8976	O	0.934538	-0.459938	0.417608
	O8977	O	0.891028	-0.459449	0.450548
	O8978	O	0.934681	-0.291873	0.417884
	O8979	O	0.933606	-0.209592	0.387850
	O8980	O	0.885945	-0.208962	0.388404
	O8981	O	0.953622	-0.291141	0.419756
	O8982	O	0.953540	-0.209119	0.388060
	O8983	O	0.997081	-0.209300	0.355190
	O8984	O	0.891057	-0.291290	0.450696
	O8985	O	0.933661	-0.041062	0.387779
	O8986	O	0.885915	-0.040567	0.388499
	O8987	O	0.997065	-0.041027	0.355118
	O8988	O	0.953572	-0.040836	0.388196
	O8989	O	0.991300	-0.291443	0.481436
	O8990	O	0.881250	-0.125688	0.454111
	O8991	O	1.006603	-0.375328	0.351428
	C8992	C	0.976333	-0.286294	0.456412
	C8993	C	0.980186	-0.375272	0.462695
	C8994	C	0.976369	-0.464100	0.456320
	C8995	C	0.968872	-0.464266	0.444062
	C8996	C	0.964986	-0.375397	0.437856
	C8997	C	0.968842	-0.286404	0.444128
	C8998	C	0.956822	-0.375293	0.424769
	C8999	C	0.988157	-0.375377	0.476197
	C9000	C	0.930993	-0.375535	0.420737
	C9001	C	0.921724	-0.375307	0.428170
	C9002	C	0.917273	-0.285794	0.431530
	C9003	C	0.908525	-0.285647	0.437670
	C9004	C	0.904003	-0.375244	0.440620
	C9005	C	0.908465	-0.464849	0.437400
	C9006	C	0.917220	-0.464956	0.431266
	C9007	C	0.894709	-0.375447	0.447847
	C9008	C	0.929585	-0.125198	0.387553
	C9009	C	0.919342	-0.124703	0.387169
	C9010	C	0.914493	-0.034829	0.387656
	C9011	C	0.905060	-0.034652	0.388659
	C9012	C	0.900215	-0.124615	0.389170
	C9013	C	0.905056	-0.214435	0.388611
	C9014	C	0.914495	-0.214524	0.387597
	C9015	C	0.889981	-0.124672	0.388754
	C9016	C	0.957205	-0.125200	0.385370
	C9017	C	0.966508	-0.125075	0.378141
	C9018	C	0.970961	-0.214841	0.374956
	C9019	C	0.979675	-0.214842	0.368721
	C9020	C	0.984180	-0.125256	0.365569
	C9021	C	0.979728	-0.035656	0.368845
	C9022	C	0.971015	-0.035553	0.375084
	C9023	C	0.993443	-0.125181	0.358069
	H9024	H	0.983048	-0.284569	0.366165
	H9025	H	0.967564	-0.284536	0.377328
	H9026	H	0.979190	-0.217416	0.461268
	H9027	H	0.965912	-0.217576	0.439376
	H9028	H	0.942851	-0.374942	0.379379
	H9029	H	0.944467	-0.125481	0.426305
	H9030	H	0.880317	-0.125980	0.441906
	H9031	H	1.006602	-0.375430	0.363587
	H9032	H	0.918130	-0.284459	0.387137
	H9033	H	0.901407	-0.284383	0.388980
	H9034	H	0.905173	-0.216000	0.440223
	H9035	H	0.920698	-0.215850	0.429281
	H9036	H	0.901437	0.035398	0.389065
	H9037	H	0.918137	0.034981	0.387216
	H9038	H	0.920575	-0.534779	0.428831
	H9039	H	0.905065	-0.534403	0.439754
	H9040	H	0.965974	-0.533324	0.439232
	H9041	H	0.979264	-0.533223	0.461089
	H9042	H	0.967616	0.033764	0.377546
	H9043	H	0.983117	0.033986	0.366455
	Al9044	Al	0.944075	0.000287	0.402801
	Al9045	Al	0.944090	0.249527	0.402772
	Al9046	Al	0.875005	0.250071	0.374960
	Al9047	Al	0.875006	0.000361	0.375086
	O9048	O	0.953590	0.040687	0.419807
	O9049	O	0.943702	0.124749	0.391560
	O9050	O	0.944190	0.374878	0.414033
	O9051	O	0.991331	0.040433	0.481440
	O9052	O	0.934618	0.040913	0.417890
	O9053	O	0.891048	0.040614	0.450551
	O9054	O	0.934596	0.209091	0.417861
	O9055	O	0.933602	0.290342	0.387849
	O9056	O	0.885885	0.290837	0.388466
	O9057	O	0.953582	0.208673	0.419863
	O9058	O	0.953533	0.290266	0.388089
	O9059	O	0.997136	0.290537	0.355467
	O9060	O	0.891046	0.209096	0.450544
	O9061	O	0.933618	0.458779	0.387753
	O9062	O	0.885889	0.459064	0.388565
	O9063	O	0.997078	0.458764	0.355199
	O9064	O	0.953515	0.458429	0.388002
	O9065	O	0.991317	0.208695	0.481513
	O9066	O	0.881224	0.374859	0.453994
	O9067	O	1.006639	0.124763	0.351511
	C9068	C	0.976371	0.213580	0.456417
	C9069	C	0.980239	0.124683	0.462685
	C9070	C	0.976393	0.035800	0.456444
	C9071	C	0.968881	0.035689	0.444179
	C9072	C	0.965011	0.124580	0.437926
	C9073	C	0.968855	0.213514	0.444174
	C9074	C	0.956845	0.124806	0.424805
	C9075	C	0.988214	0.124625	0.476234
	C9076	C	0.930991	0.125018	0.420791
	C9077	C	0.921690	0.125001	0.428133
	C9078	C	0.917211	0.214730	0.431301
	C9079	C	0.908449	0.214435	0.437426
	C9080	C	0.903988	0.124642	0.440503
	C9081	C	0.908485	0.034887	0.437481
	C9082	C	0.917251	0.035165	0.431365
	C9083	C	0.894708	0.124904	0.447731
	C9084	C	0.929559	0.374542	0.387555
	C9085	C	0.919300	0.374578	0.387170
	C9086	C	0.914463	0.464598	0.387774
	C9087	C	0.905028	0.464705	0.388806
	C9088	C	0.900176	0.374804	0.389244
	C9089	C	0.905023	0.284882	0.388820
	C9090	C	0.914458	0.284742	0.387752
	C9091	C	0.889919	0.374899	0.388806
	C9092	C	0.957191	0.374435	0.385276
	C9093	C	0.966482	0.374274	0.378034
	C9094	C	0.970980	0.284811	0.374996
	C9095	C	0.979743	0.284970	0.368864
	C9096	C	0.984200	0.374791	0.365657
	C9097	C	0.979694	0.464265	0.368773
	C9098	C	0.970940	0.464054	0.374896
	C9099	C	0.993454	0.374691	0.358227
	H9100	H	0.983099	0.215132	0.366474
	H9101	H	0.967598	0.215227	0.377413
	H9102	H	0.979246	0.282704	0.461189
	H9103	H	0.965937	0.282504	0.439419
	H9104	H	0.942797	0.124778	0.379392
	H9105	H	0.944372	0.374942	0.426238
	H9106	H	0.880385	0.374935	0.441878
	H9107	H	1.006498	0.124679	0.363677
	H9108	H	0.918112	0.214942	0.387397
	H9109	H	0.901390	0.214865	0.389173
	H9110	H	0.905050	0.284005	0.439823
	H9111	H	0.920580	0.284493	0.428994
	H9112	H	0.901364	0.534782	0.389187
	H9113	H	0.918090	0.534587	0.387404
	H9114	H	0.920649	-0.034417	0.429059
	H9115	H	0.905153	-0.034848	0.439930
	H9116	H	0.965997	-0.033107	0.439393
	H9117	H	0.979287	-0.032995	0.461251
	H9118	H	0.967557	0.533775	0.377236
	H9119	H	0.983040	0.533882	0.366258
	Al9120	Al	0.937535	-0.500117	0.562599
	Al9121	Al	0.937580	-0.250113	0.562612
	Al9122	Al	0.881598	-0.249922	0.465420
	Al9123	Al	0.881595	-0.500534	0.465188
	O9124	O	0.946301	-0.459281	0.581161
	O9125	O	0.938069	-0.375140	0.551595
	O9126	O	0.937021	-0.125460	0.573637
	O9127	O	0.983947	-0.459419	0.643088
	O9128	O	0.927464	-0.459641	0.575689
	O9129	O	0.885135	-0.459867	0.612106
	O9130	O	0.927494	-0.291279	0.575627
	O9131	O	0.928868	-0.209281	0.543903
	O9132	O	0.891123	-0.209501	0.482349
	O9133	O	0.946268	-0.291494	0.581343
	O9134	O	0.947636	-0.209264	0.549620
	O9135	O	0.989972	-0.209265	0.513250
	O9136	O	0.885063	-0.291763	0.612059
	O9137	O	0.928870	-0.041119	0.543908
	O9138	O	0.891109	-0.041728	0.482350
	O9139	O	0.989907	-0.040692	0.513130
	O9140	O	0.947571	-0.040948	0.549645
	O9141	O	0.983897	-0.291742	0.643157
	O9142	O	0.875518	-0.125333	0.614017
	O9143	O	0.999488	-0.375502	0.511159
	C9144	C	0.968701	-0.286999	0.618639
	C9145	C	0.972551	-0.375595	0.624912
	C9146	C	0.968726	-0.464165	0.618583
	C9147	C	0.961252	-0.464318	0.606245
	C9148	C	0.957392	-0.375780	0.600006
	C9149	C	0.961215	-0.287023	0.606307
	C9150	C	0.949439	-0.375381	0.586439
	C9151	C	0.980677	-0.375676	0.638083
	C9152	C	0.923917	-0.375343	0.578672
	C9153	C	0.914871	-0.375018	0.586682
	C9154	C	0.910536	-0.285953	0.590287
	C9155	C	0.902052	-0.286096	0.597467
	C9156	C	0.897751	-0.375210	0.601170
	C9157	C	0.902070	-0.464366	0.597520
	C9158	C	0.910568	-0.464349	0.590331
	C9159	C	0.888668	-0.375584	0.609066
	C9160	C	0.925738	-0.125248	0.538669
	C9161	C	0.917737	-0.125458	0.525213
	C9162	C	0.913906	-0.036675	0.518863
	C9163	C	0.906407	-0.036421	0.506613
	C9164	C	0.902528	-0.125366	0.500417
	C9165	C	0.906376	-0.214287	0.506717
	C9166	C	0.913879	-0.214386	0.518968
	C9167	C	0.894371	-0.125633	0.487360
	C9168	C	0.951162	-0.124993	0.546657
	C9169	C	0.960237	-0.125011	0.538721
	C9170	C	0.964599	-0.214476	0.535272
	C9171	C	0.973073	-0.214368	0.528037
	C9172	C	0.977329	-0.125161	0.524178
	C9173	C	0.972964	-0.035907	0.527639
	C9174	C	0.964511	-0.035892	0.534881
	C9175	C	0.986401	-0.125033	0.516248
	H9176	H	0.976412	-0.282999	0.525320
	H9177	H	0.961327	-0.283147	0.538327
	H9178	H	0.971586	-0.218065	0.623391
	H9179	H	0.958369	-0.217980	0.601437
	H9180	H	0.938605	-0.374946	0.539512
	H9181	H	0.936522	-0.125301	0.585699
	H9182	H	0.875965	-0.124947	0.601957
	H9183	H	0.999086	-0.375219	0.523179
	H9184	H	0.916782	-0.283406	0.523758
	H9185	H	0.903482	-0.283227	0.501988
	H9186	H	0.898744	-0.217167	0.600215
	H9187	H	0.913773	-0.217032	0.587339
	H9188	H	0.903543	0.032792	0.501792
	H9189	H	0.916847	0.032245	0.523559
	H9190	H	0.913869	-0.533012	0.587436
	H9191	H	0.898768	-0.533016	0.600403
	H9192	H	0.958433	-0.533134	0.601303
	H9193	H	0.971610	-0.533089	0.623305
	H9194	H	0.961206	0.033070	0.537679
	H9195	H	0.976218	0.033094	0.524625
	Al9196	Al	0.937500	-0.000139	0.562678
	Al9197	Al	0.937486	0.250007	0.562643
	Al9198	Al	0.881622	0.250123	0.465200
	Al9199	Al	0.881641	-0.000737	0.465260
	O9200	O	0.946238	0.040675	0.581323
	O9201	O	0.938005	0.124773	0.551603
	O9202	O	0.937027	0.374891	0.573636
	O9203	O	0.983917	0.040891	0.642981
	O9204	O	0.927424	0.040410	0.575738
	O9205	O	0.885051	0.040287	0.611989
	O9206	O	0.927435	0.208773	0.575690
	O9207	O	0.928767	0.290723	0.543952
	O9208	O	0.891181	0.290940	0.482155
	O9209	O	0.946205	0.208738	0.581302
	O9210	O	0.947563	0.290226	0.549621
	O9211	O	0.989973	0.290229	0.513351
	O9212	O	0.885025	0.208552	0.612075
	O9213	O	0.928812	0.458762	0.543980
	O9214	O	0.891149	0.458910	0.482144
	O9215	O	0.989992	0.458433	0.513327
	O9216	O	0.947540	0.458755	0.549442
	O9217	O	0.983911	0.208628	0.643000
	O9218	O	0.875515	0.374764	0.614064
	O9219	O	0.999503	0.124551	0.511199
	C9220	C	0.968627	0.213837	0.618652
	C9221	C	0.972540	0.125029	0.624832
	C9222	C	0.968714	0.036185	0.618432
	C9223	C	0.961244	0.035977	0.606118
	C9224	C	0.957348	0.124908	0.599933
	C9225	C	0.961160	0.213622	0.606356
	C9226	C	0.949385	0.124683	0.586476
	C9227	C	0.980657	0.124800	0.637974
	C9228	C	0.923868	0.124698	0.578724
	C9229	C	0.914808	0.124731	0.586698
	C9230	C	0.910445	0.214083	0.590196
	C9231	C	0.901974	0.214025	0.597441
	C9232	C	0.897684	0.124723	0.601196
	C9233	C	0.902021	0.035243	0.597614
	C9234	C	0.910479	0.035405	0.590381
	C9235	C	0.888612	0.124597	0.609102
	C9236	C	0.925643	0.374830	0.538749
	C9237	C	0.917674	0.375502	0.525239
	C9238	C	0.913896	0.464649	0.518821
	C9239	C	0.906417	0.464605	0.506538
	C9240	C	0.902542	0.375413	0.500300
	C9241	C	0.906355	0.286336	0.506650
	C9242	C	0.913838	0.286347	0.518935
	C9243	C	0.894368	0.375199	0.487226
	C9244	C	0.951085	0.374516	0.546482
	C9245	C	0.960166	0.374272	0.538528
	C9246	C	0.964537	0.284821	0.535130
	C9247	C	0.973015	0.284776	0.527914
	C9248	C	0.977282	0.374282	0.524082
	C9249	C	0.972928	0.463775	0.527554
	C9250	C	0.964452	0.463805	0.534756
	C9251	C	0.986415	0.374389	0.516281
	H9252	H	0.976361	0.215747	0.525318
	H9253	H	0.961284	0.215580	0.538082
	H9254	H	0.971490	0.282714	0.623503
	H9255	H	0.958245	0.282106	0.601607
	H9256	H	0.938663	0.124949	0.539571
	H9257	H	0.936518	0.374966	0.585635
	H9258	H	0.876164	0.374686	0.602100
	H9259	H	0.998933	0.124590	0.523239
	H9260	H	0.916675	0.217209	0.523861
	H9261	H	0.903387	0.217419	0.502021
	H9262	H	0.898633	0.283088	0.600244
	H9263	H	0.913729	0.283150	0.587210
	H9264	H	0.903508	0.533607	0.501744
	H9265	H	0.916789	0.533763	0.523630
	H9266	H	0.913806	-0.033761	0.587597
	H9267	H	0.898772	-0.033840	0.600566
	H9268	H	0.958385	-0.032745	0.601205
	H9269	H	0.971655	-0.032576	0.623117
	H9270	H	0.961089	0.532925	0.537427
	H9271	H	0.976238	0.532665	0.524656
	Al9272	Al	0.930949	-0.501036	0.722467
	Al9273	Al	0.930895	-0.250233	0.722429
	Al9274	Al	0.875036	-0.250212	0.625095
	Al9275	Al	0.875057	-0.500179	0.625129
	O9276	O	0.941430	-0.459626	0.737416
	O9277	O	0.930927	-0.375848	0.711109
	O9278	O	0.931309	-0.125753	0.733697
	O9279	O	0.989111	-0.459247	0.736468
	O9280	O	0.921478	-0.459437	0.737106
	O9281	O	0.877962	-0.459831	0.770061
	O9282	O	0.921407	-0.291153	0.737021
	O9283	O	0.921421	-0.209204	0.705443
	O9284	O	0.883729	-0.209132	0.643805
	O9285	O	0.941396	-0.291365	0.737360
	O9286	O	0.940425	-0.209453	0.707446
	O9287	O	0.984008	-0.209534	0.674774
	O9288	O	0.877820	-0.291671	0.769660
	O9289	O	0.921385	-0.041469	0.705570
	O9290	O	0.883706	-0.041192	0.643769
	O9291	O	0.984008	-0.041338	0.674744
	O9292	O	0.940430	-0.041222	0.707536
	O9293	O	0.989126	-0.291127	0.736467
	O9294	O	0.868360	-0.125141	0.773644
	O9295	O	0.993839	-0.375617	0.671271
	C9296	C	0.969983	-0.285449	0.736402
	C9297	C	0.974821	-0.375264	0.735901
	C9298	C	0.969978	-0.465333	0.736215
	C9299	C	0.960547	-0.465386	0.737308
	C9300	C	0.955709	-0.375610	0.738005
	C9301	C	0.960548	-0.285667	0.737503
	C9302	C	0.945450	-0.375355	0.737674
	C9303	C	0.985072	-0.375201	0.736231
	C9304	C	0.917796	-0.375424	0.739825
	C9305	C	0.908509	-0.375743	0.747085
	C9306	C	0.904022	-0.285922	0.750214
	C9307	C	0.895279	-0.286067	0.756364
	C9308	C	0.890796	-0.375863	0.759550
	C9309	C	0.895295	-0.465655	0.756398
	C9310	C	0.904041	-0.465613	0.750245
	C9311	C	0.881525	-0.375664	0.766963
	C9312	C	0.918169	-0.125221	0.700428
	C9313	C	0.910034	-0.124992	0.687330
	C9314	C	0.906158	-0.036155	0.681135
	C9315	C	0.898658	-0.036268	0.668843
	C9316	C	0.894861	-0.125087	0.662475
	C9317	C	0.898684	-0.213942	0.668782
	C9318	C	0.906173	-0.213856	0.681082
	C9319	C	0.886854	-0.125124	0.648994
	C9320	C	0.944035	-0.125336	0.704566
	C9321	C	0.953309	-0.125214	0.697111
	C9322	C	0.957794	-0.214752	0.693932
	C9323	C	0.966520	-0.214697	0.687780
	C9324	C	0.971028	-0.125215	0.684693
	C9325	C	0.966561	-0.035621	0.687817
	C9326	C	0.957821	-0.035633	0.693958
	C9327	C	0.980338	-0.125545	0.677532
	H9328	H	0.969896	-0.284270	0.685366
	H9329	H	0.954412	-0.284595	0.696353
	H9330	H	0.973631	-0.215413	0.736005
	H9331	H	0.956902	-0.215748	0.738015
	H9332	H	0.931089	-0.376427	0.698948
	H9333	H	0.932256	-0.126126	0.745800
	H9334	H	0.868490	-0.125284	0.761479
	H9335	H	0.994540	-0.375791	0.683391
	H9336	H	0.909075	-0.282855	0.685880
	H9337	H	0.895797	-0.283105	0.664060
	H9338	H	0.891895	-0.216284	0.758768
	H9339	H	0.907400	-0.216419	0.747744
	H9340	H	0.895725	0.032670	0.664090
	H9341	H	0.909046	0.032734	0.685953
	H9342	H	0.907420	-0.535320	0.747828
	H9343	H	0.891942	-0.535567	0.758855
	H9344	H	0.956912	-0.535462	0.737670
	H9345	H	0.973604	-0.535402	0.735677
	H9346	H	0.954447	0.033930	0.696387
	H9347	H	0.969975	0.033880	0.685423
	Al9348	Al	0.930945	-0.001304	0.722584
	Al9349	Al	0.930909	0.249762	0.722449
	Al9350	Al	0.874958	0.249911	0.625071
	Al9351	Al	0.875009	-0.000301	0.625022
	O9352	O	0.941432	0.040453	0.737499
	O9353	O	0.930842	0.124398	0.711242
	O9354	O	0.931303	0.374520	0.733707
	O9355	O	0.989155	0.041044	0.736369
	O9356	O	0.921501	0.040811	0.737145
	O9357	O	0.877998	0.040077	0.770142
	O9358	O	0.921494	0.209136	0.737113
	O9359	O	0.921401	0.290232	0.705468
	O9360	O	0.883740	0.290002	0.643753
	O9361	O	0.941415	0.209064	0.737409
	O9362	O	0.940352	0.290493	0.707368
	O9363	O	0.984042	0.290562	0.674716
	O9364	O	0.877871	0.208230	0.769791
	O9365	O	0.921355	0.458246	0.705568
	O9366	O	0.883717	0.458058	0.643883
	O9367	O	0.983995	0.458868	0.674707
	O9368	O	0.940447	0.458555	0.707420
	O9369	O	0.989116	0.209380	0.736470
	O9370	O	0.868366	0.375005	0.773674
	O9371	O	0.993840	0.124344	0.671197
	C9372	C	0.969989	0.214822	0.736501
	C9373	C	0.974846	0.124948	0.735885
	C9374	C	0.969988	0.034960	0.736325
	C9375	C	0.960554	0.034976	0.737420
	C9376	C	0.955711	0.124912	0.738100
	C9377	C	0.960567	0.214894	0.737580
	C9378	C	0.945461	0.124734	0.737704
	C9379	C	0.985080	0.125102	0.736191
	C9380	C	0.917806	0.124850	0.739849
	C9381	C	0.908490	0.124968	0.746999
	C9382	C	0.903981	0.214690	0.750079
	C9383	C	0.895235	0.214756	0.756248
	C9384	C	0.890787	0.124937	0.759493
	C9385	C	0.895286	0.035206	0.756388
	C9386	C	0.904033	0.035262	0.750206
	C9387	C	0.881533	0.124520	0.767008
	C9388	C	0.918164	0.374370	0.700437
	C9389	C	0.910006	0.374202	0.687336
	C9390	C	0.906121	0.463042	0.681119
	C9391	C	0.898641	0.462998	0.668837
	C9392	C	0.894857	0.373945	0.662471
	C9393	C	0.898676	0.285058	0.668804
	C9394	C	0.906165	0.285108	0.681067
	C9395	C	0.886883	0.374084	0.648983
	C9396	C	0.944032	0.374292	0.704506
	C9397	C	0.953314	0.374297	0.697069
	C9398	C	0.957833	0.284591	0.694055
	C9399	C	0.966586	0.284529	0.687949
	C9400	C	0.971048	0.374152	0.684678
	C9401	C	0.966539	0.463975	0.687722
	C9402	C	0.957789	0.464063	0.693852
	C9403	C	0.980358	0.374751	0.677464
	H9404	H	0.969997	0.214739	0.685691
	H9405	H	0.954495	0.214559	0.696632
	H9406	H	0.973643	0.284787	0.736160
	H9407	H	0.956908	0.284836	0.738158
	H9408	H	0.930828	0.123870	0.699053
	H9409	H	0.932253	0.374214	0.745890
	H9410	H	0.868389	0.374953	0.761446
	H9411	H	0.994895	0.124675	0.683313
	H9412	H	0.909056	0.215969	0.685836
	H9413	H	0.895794	0.216131	0.663943
	H9414	H	0.891871	0.284526	0.758726
	H9415	H	0.907343	0.284602	0.747675
	H9416	H	0.895769	0.531773	0.664017
	H9417	H	0.909003	0.532324	0.685925
	H9418	H	0.907426	-0.034296	0.747916
	H9419	H	0.891914	-0.034665	0.758937
	H9420	H	0.956906	-0.035172	0.737863
	H9421	H	0.973641	-0.034960	0.735894
	H9422	H	0.954419	0.534091	0.696241
	H9423	H	0.969921	0.533799	0.685281
	Al9424	Al	0.937489	-0.499823	0.812379
	Al9425	Al	0.937476	-0.249736	0.812311
	Al9426	Al	0.868434	-0.250801	0.784852
	Al9427	Al	0.868418	-0.499961	0.784980
	O9428	O	0.948436	-0.459558	0.825773
	O9429	O	0.936774	-0.375098	0.800986
	O9430	O	0.938240	-0.125046	0.823720
	O9431	O	0.996107	-0.458618	0.825136
	O9432	O	0.928467	-0.458449	0.828375
	O9433	O	0.884032	-0.458530	0.858792
	O9434	O	0.928398	-0.290455	0.828243
	O9435	O	0.926606	-0.208735	0.798869
	O9436	O	0.878919	-0.209984	0.799802
	O9437	O	0.948351	-0.291225	0.825864
	O9438	O	0.946543	-0.209300	0.796318
	O9439	O	0.990961	-0.208811	0.765949
	O9440	O	0.884053	-0.290502	0.858841
	O9441	O	0.926570	-0.040565	0.798980
	O9442	O	0.878892	-0.041630	0.799927
	O9443	O	0.990942	-0.040895	0.765967
	O9444	O	0.946516	-0.041335	0.796217
	O9445	O	0.996054	-0.290257	0.825213
	O9446	O	0.874220	-0.124926	0.863544
	O9447	O	1.000761	-0.374931	0.761258
	C9448	C	0.976927	-0.284998	0.824942
	C9449	C	0.981788	-0.374781	0.824524
	C9450	C	0.976956	-0.464784	0.825000
	C9451	C	0.967530	-0.464961	0.826031
	C9452	C	0.962673	-0.374945	0.826574
	C9453	C	0.967502	-0.285133	0.825967
	C9454	C	0.952427	-0.375175	0.826088
	C9455	C	0.992037	-0.374648	0.824932
	C9456	C	0.924745	-0.374530	0.831150
	C9457	C	0.915294	-0.374578	0.837995
	C9458	C	0.910718	-0.284799	0.841032
	C9459	C	0.901812	-0.284880	0.846402
	C9460	C	0.897197	-0.374635	0.849183
	C9461	C	0.901777	-0.464339	0.846267
	C9462	C	0.910685	-0.464247	0.840877
	C9463	C	0.887731	-0.374640	0.855984
	C9464	C	0.922539	-0.124764	0.798698
	C9465	C	0.912294	-0.124935	0.798236
	C9466	C	0.907446	-0.035246	0.798718
	C9467	C	0.898016	-0.035759	0.799785
	C9468	C	0.893197	-0.125716	0.800406
	C9469	C	0.898049	-0.215228	0.799848
	C9470	C	0.907476	-0.214899	0.798774
	C9471	C	0.882961	-0.125798	0.800123
	C9472	C	0.950242	-0.125319	0.793555
	C9473	C	0.959707	-0.125401	0.786680
	C9474	C	0.964340	-0.214995	0.783936
	C9475	C	0.973268	-0.215115	0.778601
	C9476	C	0.977834	-0.125203	0.775739
	C9477	C	0.973209	-0.035646	0.778503
	C9478	C	0.964286	-0.035587	0.783817
	C9479	C	0.987279	-0.124974	0.768804
	H9480	H	0.976687	-0.285410	0.776507
	H9481	H	0.960886	-0.285064	0.785911
	H9482	H	0.980543	-0.214862	0.824586
	H9483	H	0.963840	-0.215162	0.826328
	H9484	H	0.935814	-0.375082	0.788903
	H9485	H	0.939089	-0.125123	0.835952
	H9486	H	0.873089	-0.124835	0.851448
	H9487	H	1.001613	-0.374581	0.773381
	H9488	H	0.911089	-0.285151	0.798385
	H9489	H	0.894425	-0.285399	0.800329
	H9490	H	0.898369	-0.214828	0.848422
	H9491	H	0.914182	-0.214762	0.839076
	H9492	H	0.894372	0.034131	0.800184
	H9493	H	0.911093	0.034827	0.798267
	H9494	H	0.914110	-0.534193	0.838824
	H9495	H	0.898302	-0.534201	0.848207
	H9496	H	0.963893	-0.535057	0.826468
	H9497	H	0.980620	-0.534520	0.824646
	H9498	H	0.960821	0.034625	0.785719
	H9499	H	0.976611	0.034665	0.776328
	Al9500	Al	0.937508	0.000206	0.812398
	Al9501	Al	0.937491	0.250279	0.812337
	Al9502	Al	0.868418	0.248962	0.784871
	Al9503	Al	0.868416	0.000061	0.785000
	O9504	O	0.948425	0.040850	0.825751
	O9505	O	0.936740	0.124969	0.801058
	O9506	O	0.938215	0.375056	0.823715
	O9507	O	0.996120	0.041706	0.825062
	O9508	O	0.928437	0.041000	0.828520
	O9509	O	0.884018	0.041297	0.858718
	O9510	O	0.928455	0.209158	0.828406
	O9511	O	0.926619	0.291285	0.798823
	O9512	O	0.878927	0.290079	0.799739
	O9513	O	0.948357	0.209073	0.826005
	O9514	O	0.946575	0.290800	0.796379
	O9515	O	0.990989	0.291490	0.766020
	O9516	O	0.884027	0.209339	0.858700
	O9517	O	0.926593	0.459485	0.798921
	O9518	O	0.878866	0.458567	0.800027
	O9519	O	0.990975	0.459603	0.766051
	O9520	O	0.946519	0.458821	0.796219
	O9521	O	0.996096	0.210039	0.825080
	O9522	O	0.874213	0.375272	0.863481
	O9523	O	1.000782	0.125302	0.761245
	C9524	C	0.976956	0.215189	0.824988
	C9525	C	0.981808	0.125543	0.824464
	C9526	C	0.976989	0.035611	0.824980
	C9527	C	0.967538	0.035472	0.825983
	C9528	C	0.962687	0.125243	0.826472
	C9529	C	0.967516	0.215112	0.826000
	C9530	C	0.952431	0.125089	0.826084
	C9531	C	0.992043	0.125789	0.824811
	C9532	C	0.924758	0.125207	0.831206
	C9533	C	0.915278	0.125375	0.838106
	C9534	C	0.910698	0.215222	0.840875
	C9535	C	0.901765	0.215171	0.846164
	C9536	C	0.897157	0.125354	0.848960
	C9537	C	0.901772	0.035525	0.846257
	C9538	C	0.910702	0.035544	0.840955
	C9539	C	0.887713	0.125294	0.855946
	C9540	C	0.922555	0.375317	0.798604
	C9541	C	0.912320	0.375188	0.798267
	C9542	C	0.907452	0.465022	0.798736
	C9543	C	0.898026	0.464751	0.799820
	C9544	C	0.893200	0.374703	0.800442
	C9545	C	0.898068	0.284762	0.799867
	C9546	C	0.907493	0.285099	0.798777
	C9547	C	0.882951	0.374525	0.800077
	C9548	C	0.950238	0.374937	0.793493
	C9549	C	0.959697	0.375217	0.786619
	C9550	C	0.964294	0.285386	0.783704
	C9551	C	0.973224	0.285472	0.778387
	C9552	C	0.977863	0.375208	0.775727
	C9553	C	0.973240	0.465018	0.778561
	C9554	C	0.964302	0.464958	0.783875
	C9555	C	0.987293	0.375549	0.768853
	H9556	H	0.976707	0.215420	0.776333
	H9557	H	0.960864	0.215126	0.785650
	H9558	H	0.980581	0.285398	0.824634
	H9559	H	0.963898	0.285245	0.826462
	H9560	H	0.935745	0.124969	0.788947
	H9561	H	0.939264	0.374903	0.835811
	H9562	H	0.873146	0.375234	0.851389
	H9563	H	1.001936	0.124950	0.773351
	H9564	H	0.911171	0.215361	0.798412
	H9565	H	0.894452	0.214943	0.800334
	H9566	H	0.898318	0.285116	0.848134
	H9567	H	0.914131	0.285339	0.838797
	H9568	H	0.894356	0.534511	0.800310
	H9569	H	0.911077	0.535115	0.798343
	H9570	H	0.914126	-0.034570	0.838928
	H9571	H	0.898339	-0.034706	0.848323
	H9572	H	0.963918	-0.034737	0.826423
	H9573	H	0.980620	-0.034279	0.824629
	H9574	H	0.960858	0.534796	0.786057
	H9575	H	0.976690	0.535135	0.776706
	Al9576	Al	0.944042	-0.499283	0.902478
	Al9577	Al	0.944062	-0.250162	0.902591
	Al9578	Al	0.875040	-0.249966	0.874900
	Al9579	Al	0.874977	-0.499984	0.874823
	O9580	O	0.953617	-0.458659	0.919465
	O9581	O	0.943661	-0.374654	0.891269
	O9582	O	0.944176	-0.124494	0.913815
	O9583	O	0.991270	-0.459023	0.981222
	O9584	O	0.934592	-0.458847	0.917547
	O9585	O	0.891016	-0.459153	0.950411
	O9586	O	0.934613	-0.290847	0.917735
	O9587	O	0.933599	-0.209099	0.887516
	O9588	O	0.885924	-0.208787	0.888299
	O9589	O	0.953615	-0.290872	0.919497
	O9590	O	0.953523	-0.208823	0.887923
	O9591	O	0.997162	-0.208616	0.855295
	O9592	O	0.891025	-0.291022	0.950454
	O9593	O	0.933625	-0.040832	0.887535
	O9594	O	0.885928	-0.040555	0.888284
	O9595	O	0.997054	-0.040266	0.855019
	O9596	O	0.953513	-0.040536	0.887889
	O9597	O	0.991214	-0.290960	0.981272
	O9598	O	0.881178	-0.125246	0.953804
	O9599	O	1.006649	-0.374443	0.851381
	C9600	C	0.976286	-0.285849	0.956226
	C9601	C	0.980135	-0.375108	0.962537
	C9602	C	0.976327	-0.464288	0.956165
	C9603	C	0.968841	-0.464549	0.943874
	C9604	C	0.964982	-0.375202	0.937603
	C9605	C	0.968808	-0.285938	0.943921
	C9606	C	0.956822	-0.374952	0.924565
	C9607	C	0.988104	-0.374938	0.976059
	C9608	C	0.930989	-0.374920	0.920588
	C9609	C	0.921738	-0.374792	0.928114
	C9610	C	0.917243	-0.285308	0.931238
	C9611	C	0.908479	-0.285344	0.937368
	C9612	C	0.904002	-0.375047	0.940532
	C9613	C	0.908485	-0.464484	0.937357
	C9614	C	0.917233	-0.464420	0.931189
	C9615	C	0.894696	-0.375086	0.947686
	C9616	C	0.929574	-0.124926	0.887294
	C9617	C	0.919313	-0.124629	0.886876
	C9618	C	0.914505	-0.034711	0.887430
	C9619	C	0.905059	-0.034549	0.888486
	C9620	C	0.900216	-0.124525	0.888972
	C9621	C	0.905035	-0.214437	0.888451
	C9622	C	0.914467	-0.214459	0.887372
	C9623	C	0.889968	-0.124692	0.888528
	C9624	C	0.957163	-0.124781	0.885133
	C9625	C	0.966491	-0.124382	0.877959
	C9626	C	0.970999	-0.214149	0.874939
	C9627	C	0.979740	-0.214265	0.868792
	C9628	C	0.984207	-0.124646	0.865517
	C9629	C	0.979717	-0.034862	0.868650
	C9630	C	0.970985	-0.034765	0.874816
	C9631	C	0.993493	-0.124512	0.858048
	H9632	H	0.983132	-0.284143	0.866453
	H9633	H	0.967609	-0.283798	0.877358
	H9634	H	0.979132	-0.216636	0.961147
	H9635	H	0.965872	-0.216761	0.939194
	H9636	H	0.942835	-0.374639	0.879117
	H9637	H	0.944284	-0.124510	0.926059
	H9638	H	0.880175	-0.125820	0.941716
	H9639	H	1.006615	-0.374752	0.863626
	H9640	H	0.918071	-0.284631	0.887006
	H9641	H	0.901409	-0.284474	0.888873
	H9642	H	0.905085	-0.215814	0.939700
	H9643	H	0.920602	-0.215591	0.928751
	H9644	H	0.901448	0.035425	0.888942
	H9645	H	0.918166	0.035068	0.887122
	H9646	H	0.920556	-0.534308	0.928650
	H9647	H	0.905090	-0.534199	0.939628
	H9648	H	0.965928	-0.533778	0.939124
	H9649	H	0.979194	-0.533481	0.961003
	H9650	H	0.967582	0.034808	0.877170
	H9651	H	0.983087	0.034809	0.866171
	Al9652	Al	0.944038	0.000643	0.902482
	Al9653	Al	0.944053	0.249915	0.902566
	Al9654	Al	0.875027	0.249869	0.874834
	Al9655	Al	0.875012	0.000208	0.874914
	O9656	O	0.953549	0.041174	0.919574
	O9657	O	0.943631	0.125316	0.891321
	O9658	O	0.944136	0.375248	0.913896
	O9659	O	0.991236	0.041275	0.981142
	O9660	O	0.934553	0.040965	0.917571
	O9661	O	0.891022	0.040956	0.950385
	O9662	O	0.934622	0.209290	0.917663
	O9663	O	0.933596	0.290959	0.887580
	O9664	O	0.885922	0.290951	0.888244
	O9665	O	0.953559	0.209207	0.919584
	O9666	O	0.953511	0.291054	0.887874
	O9667	O	0.997136	0.291357	0.855309
	O9668	O	0.890977	0.209284	0.950358
	O9669	O	0.933591	0.459297	0.887472
	O9670	O	0.885914	0.459076	0.888168
	O9671	O	0.997076	0.459591	0.855168
	O9672	O	0.953514	0.459431	0.887876
	O9673	O	0.991276	0.209302	0.981152
	O9674	O	0.881160	0.375200	0.953827
	O9675	O	1.006655	0.125389	0.851378
	C9676	C	0.976291	0.214499	0.956125
	C9677	C	0.980140	0.125515	0.962415
	C9678	C	0.976322	0.036439	0.956127
	C9679	C	0.968816	0.036032	0.943881
	C9680	C	0.964959	0.125079	0.937600
	C9681	C	0.968788	0.214075	0.943865
	C9682	C	0.956791	0.125134	0.924587
	C9683	C	0.988129	0.125419	0.975917
	C9684	C	0.930956	0.125090	0.920574
	C9685	C	0.921712	0.125131	0.928038
	C9686	C	0.917221	0.214685	0.931265
	C9687	C	0.908490	0.214861	0.937416
	C9688	C	0.903966	0.125371	0.940461
	C9689	C	0.908496	0.035722	0.937482
	C9690	C	0.917242	0.035485	0.931319
	C9691	C	0.894678	0.125016	0.947655
	C9692	C	0.929535	0.375118	0.887253
	C9693	C	0.919320	0.375177	0.886921
	C9694	C	0.914488	0.465110	0.887504
	C9695	C	0.905071	0.465058	0.888525
	C9696	C	0.900204	0.375230	0.888980
	C9697	C	0.905062	0.285279	0.888517
	C9698	C	0.914484	0.285200	0.887498
	C9699	C	0.889967	0.375059	0.888491
	C9700	C	0.957174	0.375250	0.885144
	C9701	C	0.966477	0.375321	0.877917
	C9702	C	0.970974	0.285691	0.874863
	C9703	C	0.979740	0.285653	0.868788
	C9704	C	0.984211	0.375224	0.865597
	C9705	C	0.979727	0.464860	0.868779
	C9706	C	0.970971	0.465005	0.874880
	C9707	C	0.993490	0.375290	0.858173
	H9708	H	0.983118	0.215897	0.866433
	H9709	H	0.967584	0.216175	0.877323
	H9710	H	0.979161	0.283529	0.960938
	H9711	H	0.965859	0.282865	0.939121
	H9712	H	0.942660	0.125531	0.879213
	H9713	H	0.944164	0.374977	0.926062
	H9714	H	0.880358	0.375066	0.941687
	H9715	H	1.006567	0.125228	0.863556
	H9716	H	0.918142	0.215334	0.887071
	H9717	H	0.901405	0.215397	0.888907
	H9718	H	0.905123	0.284482	0.939888
	H9719	H	0.920591	0.284262	0.928880
	H9720	H	0.901420	0.535148	0.888920
	H9721	H	0.918120	0.535289	0.887052
	H9722	H	0.920650	-0.034130	0.928958
	H9723	H	0.905112	-0.033480	0.940000
	H9724	H	0.965936	-0.033110	0.939135
	H9725	H	0.979251	-0.032425	0.960923
	H9726	H	0.967615	0.534550	0.877303
	H9727	H	0.983133	0.534490	0.866419
