data_Molecule from HDF5

_cell_length_a		139.912059
_cell_length_b		13.366023
_cell_length_c		89.099226
_cell_angle_alpha	89.989266
_cell_angle_beta	87.060442
_cell_angle_gamma	90.011524
_symmetry_space_group_name_H-M	'P 1'
_symmetry_Int_Tables_number		1

loop_
	_symmetry_equiv_pos_as_xyz
	x,y,z

loop_
	_atom_site_label
	_atom_site_type_symbol
	_atom_site_fract_x
	_atom_site_fract_y
	_atom_site_fract_z
	Al0	Al	0.052583	-0.498872	0.010809
	Al1	Al	0.052550	-0.249846	0.010737
	Al2	Al	-0.009934	-0.248426	-0.051692
	Al3	Al	-0.009951	-0.499466	-0.051654
	O4	O	0.061827	-0.458379	0.025022
	O5	O	0.053442	-0.374477	0.001303
	O6	O	0.052087	-0.124490	0.020319
	O7	O	0.105725	-0.457850	0.059558
	O8	O	0.042043	-0.458191	0.023829
	O9	O	-0.000459	-0.458549	0.068580
	O10	O	0.041951	-0.290562	0.023633
	O11	O	0.043250	-0.208477	-0.002941
	O12	O	-0.000624	-0.208227	-0.037536
	O13	O	0.061850	-0.290195	0.024950
	O14	O	0.063980	-0.207782	-0.000518
	O15	O	0.113230	-0.208883	0.009972
	O16	O	-0.000444	-0.290665	0.068576
	O17	O	0.043223	-0.039983	-0.002889
	O18	O	-0.000597	-0.040263	-0.037568
	O19	O	0.113225	-0.040858	0.010007
	O20	O	0.064038	-0.039424	-0.000340
	O21	O	0.105714	-0.289948	0.059583
	O22	O	-0.010395	-0.124436	0.073858
	O23	O	0.123818	-0.374929	0.009518
	C24	C	0.088055	-0.284525	0.045964
	C25	C	0.092604	-0.374029	0.049231
	C26	C	0.088042	-0.463698	0.046043
	C27	C	0.079234	-0.463693	0.039469
	C28	C	0.074732	-0.374278	0.035962
	C29	C	0.079238	-0.284641	0.039426
	C30	C	0.065450	-0.374274	0.028087
	C31	C	0.102010	-0.373860	0.056713
	C32	C	0.038345	-0.374467	0.027316
	C33	C	0.029223	-0.374376	0.036897
	C34	C	0.024878	-0.285478	0.041448
	C35	C	0.016447	-0.285622	0.050356
	C36	C	0.012082	-0.374566	0.054886
	C37	C	0.016426	-0.463505	0.050295
	C38	C	0.024852	-0.463290	0.041372
	C39	C	0.003089	-0.374784	0.064783
	C40	C	0.039498	-0.124218	-0.005750
	C41	C	0.030128	-0.124390	-0.013204
	C42	C	0.025597	-0.034683	-0.016533
	C43	C	0.016803	-0.034589	-0.023118
	C44	C	0.012285	-0.124336	-0.026537
	C45	C	0.016774	-0.214109	-0.023042
	C46	C	0.025569	-0.214098	-0.016469
	C47	C	0.003004	-0.124346	-0.034399
	C48	C	0.068210	-0.123775	0.000178
	C49	C	0.078780	-0.124115	0.002082
	C50	C	0.083726	-0.214230	0.003499
	C51	C	0.093385	-0.214527	0.006363
	C52	C	0.098399	-0.124799	0.007811
	C53	C	0.093426	-0.034665	0.006523
	C54	C	0.083762	-0.034390	0.003665
	C55	C	0.109015	-0.124807	0.009450
	H56	H	0.097112	-0.284657	0.007422
	H57	H	0.079985	-0.284071	0.002252
	H58	H	0.091453	-0.215042	0.048584
	H59	H	0.075865	-0.214582	0.036944
	H60	H	0.054918	-0.374525	-0.008756
	H61	H	0.051809	-0.124861	0.030665
	H62	H	-0.010493	-0.124300	0.063567
	H63	H	0.122144	-0.375388	0.019690
	H64	H	0.028945	-0.283762	-0.013844
	H65	H	0.013367	-0.283939	-0.025552
	H66	H	0.013173	-0.216623	0.053893
	H67	H	0.028130	-0.216566	0.037932
	H68	H	0.013419	0.035328	-0.025660
	H69	H	0.028996	0.034996	-0.013954
	H70	H	0.028074	-0.531997	0.037763
	H71	H	0.013119	-0.532513	0.053779
	H72	H	0.075834	-0.533587	0.036971
	H73	H	0.091389	-0.533697	0.048648
	H74	H	0.080042	0.035632	0.002523
	H75	H	0.097174	0.035106	0.007685
	Al76	Al	0.052524	0.001152	0.010799
	Al77	Al	0.052584	0.250201	0.010766
	Al78	Al	-0.009905	0.251402	-0.051736
	Al79	Al	-0.009960	0.000230	-0.051670
	O80	O	0.061782	0.041938	0.025057
	O81	O	0.053416	0.125858	0.001298
	O82	O	0.052105	0.375450	0.020327
	O83	O	0.105689	0.041820	0.059710
	O84	O	0.041945	0.041504	0.023689
	O85	O	-0.000479	0.041281	0.068572
	O86	O	0.041970	0.209617	0.023710
	O87	O	0.043217	0.291850	-0.002891
	O88	O	-0.000583	0.291321	-0.037641
	O89	O	0.061870	0.209979	0.024934
	O90	O	0.064056	0.291509	-0.000555
	O91	O	0.113171	0.290687	0.010062
	O92	O	-0.000441	0.209357	0.068638
	O93	O	0.043173	0.459889	-0.002742
	O94	O	-0.000673	0.459626	-0.037498
	O95	O	0.113212	0.458792	0.010165
	O96	O	0.064045	0.459893	-0.000471
	O97	O	0.105716	0.210030	0.059603
	O98	O	-0.010418	0.375491	0.073975
	O99	O	0.123778	0.124774	0.009485
	C100	C	0.088041	0.215191	0.046006
	C101	C	0.092571	0.125585	0.049357
	C102	C	0.087998	0.035990	0.046116
	C103	C	0.079158	0.035895	0.039559
	C104	C	0.074685	0.125614	0.036013
	C105	C	0.079208	0.215202	0.039453
	C106	C	0.065429	0.125700	0.028132
	C107	C	0.101991	0.125902	0.056765
	C108	C	0.038339	0.125484	0.027359
	C109	C	0.029189	0.125453	0.036907
	C110	C	0.024837	0.214315	0.041380
	C111	C	0.016376	0.214077	0.050315
	C112	C	0.012091	0.125041	0.054927
	C113	C	0.016432	0.036233	0.050425
	C114	C	0.024880	0.036380	0.041480
	C115	C	0.003094	0.125331	0.064849
	C116	C	0.039506	0.375854	-0.005671
	C117	C	0.030102	0.375602	-0.013116
	C118	C	0.025499	0.465418	-0.016298
	C119	C	0.016702	0.465532	-0.022900
	C120	C	0.012227	0.375744	-0.026495
	C121	C	0.016780	0.286003	-0.023132
	C122	C	0.025579	0.285808	-0.016543
	C123	C	0.002984	0.375478	-0.034457
	C124	C	0.068253	0.375737	0.000098
	C125	C	0.078826	0.375958	0.002018
	C126	C	0.083771	0.285970	0.003424
	C127	C	0.093414	0.285794	0.006367
	C128	C	0.098390	0.375347	0.007940
	C129	C	0.093461	0.465437	0.006580
	C130	C	0.083810	0.465667	0.003628
	C131	C	0.108965	0.374875	0.009604
	H132	H	0.097122	0.215656	0.007420
	H133	H	0.080058	0.216120	0.002157
	H134	H	0.091435	0.285077	0.048488
	H135	H	0.075830	0.285157	0.036901
	H136	H	0.055018	0.126105	-0.008751
	H137	H	0.051573	0.375648	0.030697
	H138	H	-0.010596	0.375397	0.063683
	H139	H	0.122198	0.124194	0.019567
	H140	H	0.029052	0.216063	-0.014148
	H141	H	0.013441	0.216239	-0.025890
	H142	H	0.013127	0.283119	0.053846
	H143	H	0.028051	0.283517	0.037913
	H144	H	0.013311	0.535467	-0.025477
	H145	H	0.028924	0.534863	-0.013683
	H146	H	0.028171	-0.032694	0.038039
	H147	H	0.013239	-0.033080	0.054027
	H148	H	0.075767	-0.034058	0.037104
	H149	H	0.091374	-0.033566	0.048742
	H150	H	0.080089	0.535745	0.002479
	H151	H	0.097205	0.535077	0.007802
	Al152	Al	0.052345	-0.499593	0.145736
	Al153	Al	0.052350	-0.249622	0.145763
	Al154	Al	-0.010197	-0.249454	0.083211
	Al155	Al	-0.010196	-0.499536	0.083277
	O156	O	0.062472	-0.458446	0.157970
	O157	O	0.052099	-0.374333	0.136377
	O158	O	0.052522	-0.124429	0.155118
	O159	O	0.104770	-0.458914	0.195942
	O160	O	0.042832	-0.458462	0.160751
	O161	O	0.003938	-0.458559	0.213202
	O162	O	0.042871	-0.290525	0.160858
	O163	O	0.042228	-0.208641	0.133474
	O164	O	-0.000104	-0.208799	0.095497
	O165	O	0.062435	-0.290233	0.157970
	O166	O	0.062063	-0.208610	0.131067
	O167	O	0.104480	-0.208083	0.086185
	O168	O	0.003875	-0.290384	0.213165
	O169	O	0.042296	-0.040438	0.133334
	O170	O	-0.000081	-0.040633	0.095507
	O171	O	0.104530	-0.040025	0.086279
	O172	O	0.062029	-0.040304	0.131010
	O173	O	0.104785	-0.290782	0.195965
	O174	O	-0.005825	-0.125000	0.219202
	O175	O	0.114545	-0.374004	0.082780
	C176	C	0.087845	-0.285118	0.180746
	C177	C	0.092184	-0.374353	0.184494
	C178	C	0.087890	-0.463229	0.180540
	C179	C	0.079446	-0.463249	0.173011
	C180	C	0.075095	-0.374052	0.169308
	C181	C	0.079400	-0.285107	0.173196
	C182	C	0.066025	-0.374273	0.161091
	C183	C	0.101215	-0.374654	0.192772
	C184	C	0.039543	-0.374446	0.165131
	C185	C	0.031180	-0.374371	0.176369
	C186	C	0.027221	-0.285381	0.181729
	C187	C	0.019477	-0.285406	0.192164
	C188	C	0.015480	-0.374363	0.197467
	C189	C	0.019439	-0.463373	0.192138
	C190	C	0.027192	-0.463319	0.181709
	C191	C	0.007159	-0.374395	0.208831
	C192	C	0.038721	-0.124361	0.130272
	C193	C	0.029640	-0.124460	0.122032
	C194	C	0.025356	-0.035310	0.118079
	C195	C	0.016897	-0.035516	0.110583
	C196	C	0.012539	-0.124741	0.106882
	C197	C	0.016832	-0.213731	0.110826
	C198	C	0.025287	-0.213717	0.118331
	C199	C	0.003486	-0.124863	0.098632
	C200	C	0.065607	-0.124457	0.127263
	C201	C	0.074597	-0.124270	0.117364
	C202	C	0.078902	-0.213392	0.112751
	C203	C	0.087372	-0.213419	0.103808
	C204	C	0.091713	-0.124127	0.099342
	C205	C	0.087360	-0.035108	0.103856
	C206	C	0.078897	-0.035115	0.112783
	C207	C	0.100890	-0.123959	0.089866
	H208	H	0.090649	-0.282254	0.100380
	H209	H	0.075670	-0.282453	0.116238
	H210	H	0.091100	-0.216154	0.183769
	H211	H	0.076101	-0.216335	0.170362
	H212	H	0.051839	-0.374136	0.126121
	H213	H	0.052777	-0.124550	0.165348
	H214	H	-0.006165	-0.124907	0.209014
	H215	H	0.114216	-0.373838	0.093130
	H216	H	0.028505	-0.283023	0.121396
	H217	H	0.013556	-0.282722	0.107926
	H218	H	0.016506	-0.216593	0.196288
	H219	H	0.030217	-0.216339	0.177643
	H220	H	0.013661	0.033619	0.107495
	H221	H	0.028686	0.033888	0.120994
	H222	H	0.030152	-0.532239	0.177628
	H223	H	0.016441	-0.532433	0.196197
	H224	H	0.076199	-0.532315	0.169985
	H225	H	0.091199	-0.532383	0.183397
	H226	H	0.075667	0.033934	0.116217
	H227	H	0.090595	0.034062	0.100406
	Al228	Al	0.052327	0.000463	0.145736
	Al229	Al	0.052290	0.250410	0.145799
	Al230	Al	-0.010162	0.250465	0.083295
	Al231	Al	-0.010193	0.000532	0.083242
	O232	O	0.062440	0.041407	0.157951
	O233	O	0.052171	0.125693	0.136372
	O234	O	0.052525	0.375579	0.155148
	O235	O	0.104742	0.041742	0.195887
	O236	O	0.042842	0.041352	0.160773
	O237	O	0.003871	0.041278	0.213168
	O238	O	0.042819	0.209544	0.160816
	O239	O	0.042243	0.291167	0.133476
	O240	O	-0.000116	0.291326	0.095626
	O241	O	0.062351	0.209653	0.158167
	O242	O	0.062084	0.291369	0.131120
	O243	O	0.104433	0.291895	0.086104
	O244	O	0.003889	0.209381	0.213243
	O245	O	0.042319	0.459169	0.133338
	O246	O	-0.000088	0.459371	0.095493
	O247	O	0.104426	0.459888	0.086086
	O248	O	0.062033	0.459512	0.131030
	O249	O	0.104797	0.209871	0.195896
	O250	O	-0.005758	0.375063	0.219163
	O251	O	0.114558	0.125927	0.082820
	C252	C	0.087786	0.214884	0.180727
	C253	C	0.092176	0.126092	0.184471
	C254	C	0.087873	0.037005	0.180613
	C255	C	0.079417	0.036732	0.173113
	C256	C	0.075048	0.125752	0.169342
	C257	C	0.079321	0.214724	0.173259
	C258	C	0.065978	0.125515	0.161196
	C259	C	0.101203	0.125836	0.192739
	C260	C	0.039532	0.125396	0.165105
	C261	C	0.031191	0.125477	0.176402
	C262	C	0.027203	0.214558	0.181717
	C263	C	0.019452	0.214376	0.192163
	C264	C	0.015504	0.125422	0.197566
	C265	C	0.019494	0.036402	0.192256
	C266	C	0.027239	0.036397	0.181805
	C267	C	0.007162	0.125226	0.208884
	C268	C	0.038712	0.375299	0.130271
	C269	C	0.029646	0.375370	0.122012
	C270	C	0.025352	0.464581	0.118155
	C271	C	0.016887	0.464757	0.110655
	C272	C	0.012535	0.375606	0.106863
	C273	C	0.016846	0.286443	0.110695
	C274	C	0.025311	0.286277	0.118214
	C275	C	0.003471	0.375397	0.098654
	C276	C	0.065595	0.375488	0.127278
	C277	C	0.074627	0.375690	0.117426
	C278	C	0.078927	0.286640	0.112778
	C279	C	0.087349	0.286601	0.103830
	C280	C	0.091691	0.375693	0.099334
	C281	C	0.087378	0.464846	0.103931
	C282	C	0.078943	0.464875	0.112885
	C283	C	0.100830	0.375777	0.089756
	H284	H	0.090577	0.217436	0.100268
	H285	H	0.075681	0.217482	0.116285
	H286	H	0.091031	0.283698	0.183773
	H287	H	0.075998	0.283481	0.170403
	H288	H	0.052159	0.125267	0.126085
	H289	H	0.052785	0.375723	0.165371
	H290	H	-0.006120	0.375473	0.208934
	H291	H	0.114004	0.126642	0.093095
	H292	H	0.028587	0.217310	0.121242
	H293	H	0.013592	0.217456	0.107696
	H294	H	0.016432	0.283507	0.196200
	H295	H	0.030159	0.283666	0.177629
	H296	H	0.013658	0.533861	0.107674
	H297	H	0.028602	0.533610	0.121097
	H298	H	0.030237	-0.032349	0.177747
	H299	H	0.016511	-0.032524	0.196324
	H300	H	0.076158	-0.032186	0.170148
	H301	H	0.091184	-0.031886	0.183580
	H302	H	0.075689	0.533645	0.116477
	H303	H	0.090635	0.533772	0.100443
	Al304	Al	0.057061	-0.499954	0.291005
	Al305	Al	0.057030	-0.249821	0.290973
	Al306	Al	-0.005489	-0.250027	0.228517
	Al307	Al	-0.005400	-0.500051	0.228439
	O308	O	0.067272	-0.458542	0.303020
	O309	O	0.056722	-0.375016	0.281652
	O310	O	0.057336	-0.124962	0.300305
	O311	O	0.109300	-0.458185	0.341549
	O312	O	0.047755	-0.458981	0.306374
	O313	O	0.009296	-0.458766	0.359630
	O314	O	0.047701	-0.291028	0.306329
	O315	O	0.046808	-0.208722	0.278967
	O316	O	0.004673	-0.208704	0.240558
	O317	O	0.067256	-0.290279	0.303059
	O318	O	0.066329	-0.208884	0.275594
	O319	O	0.105235	-0.208869	0.223393
	O320	O	0.009319	-0.290622	0.359694
	O321	O	0.046792	-0.040504	0.279000
	O322	O	0.004672	-0.040750	0.240562
	O323	O	0.105296	-0.040537	0.223362
	O324	O	0.066350	-0.040557	0.275666
	O325	O	0.109300	-0.290205	0.341615
	O326	O	-0.000280	-0.125049	0.365691
	O327	O	0.114962	-0.374468	0.217697
	C328	C	0.092500	-0.285187	0.326038
	C329	C	0.096778	-0.374320	0.329949
	C330	C	0.092497	-0.463296	0.326078
	C331	C	0.084100	-0.463385	0.318426
	C332	C	0.079831	-0.374315	0.314476
	C333	C	0.084098	-0.285121	0.318388
	C334	C	0.070802	-0.374599	0.306207
	C335	C	0.105786	-0.374167	0.338323
	C336	C	0.044462	-0.375111	0.310750
	C337	C	0.036238	-0.374983	0.322267
	C338	C	0.032341	-0.285972	0.327695
	C339	C	0.024708	-0.286018	0.338314
	C340	C	0.020796	-0.374868	0.343799
	C341	C	0.024691	-0.463816	0.338354
	C342	C	0.032324	-0.463890	0.327733
	C343	C	0.012551	-0.374792	0.355236
	C344	C	0.043246	-0.124735	0.275818
	C345	C	0.034257	-0.124729	0.267448
	C346	C	0.029970	-0.035642	0.263565
	C347	C	0.021597	-0.035537	0.255864
	C348	C	0.017283	-0.124606	0.251964
	C349	C	0.021633	-0.213618	0.255741
	C350	C	0.030011	-0.213848	0.263424
	C351	C	0.008234	-0.124816	0.243688
	C352	C	0.069618	-0.124540	0.271326
	C353	C	0.077959	-0.124404	0.260024
	C354	C	0.081879	-0.213682	0.254621
	C355	C	0.089647	-0.213615	0.244220
	C356	C	0.093661	-0.124239	0.239006
	C357	C	0.089747	-0.034863	0.244390
	C358	C	0.081988	-0.035042	0.254799
	C359	C	0.102002	-0.124355	0.227689
	H360	H	0.092625	-0.282519	0.240102
	H361	H	0.078855	-0.282707	0.258605
	H362	H	0.095774	-0.216309	0.329019
	H363	H	0.080841	-0.216145	0.315381
	H364	H	0.056494	-0.375568	0.271413
	H365	H	0.057619	-0.125264	0.310573
	H366	H	-0.000539	-0.125404	0.355442
	H367	H	0.115061	-0.374584	0.228015
	H368	H	0.033304	-0.282898	0.266288
	H369	H	0.018408	-0.282374	0.252581
	H370	H	0.021734	-0.216734	0.342369
	H371	H	0.035283	-0.217319	0.323478
	H372	H	0.018358	0.033282	0.252889
	H373	H	0.033240	0.033116	0.266610
	H374	H	0.035209	-0.533022	0.323561
	H375	H	0.021713	-0.532626	0.342456
	H376	H	0.080859	-0.532443	0.315443
	H377	H	0.095756	-0.532440	0.329059
	H378	H	0.079017	0.034052	0.258924
	H379	H	0.092784	0.034100	0.240388
	Al380	Al	0.057022	0.000011	0.290964
	Al381	Al	0.057064	0.249817	0.291036
	Al382	Al	-0.005437	0.250127	0.228541
	Al383	Al	-0.005495	0.000173	0.228467
	O384	O	0.067222	0.040724	0.303099
	O385	O	0.056722	0.125118	0.281660
	O386	O	0.057418	0.374877	0.300318
	O387	O	0.109311	0.040944	0.341620
	O388	O	0.047706	0.041571	0.306314
	O389	O	0.009299	0.041083	0.359590
	O390	O	0.047737	0.209290	0.306387
	O391	O	0.046891	0.290854	0.278954
	O392	O	0.004786	0.291229	0.240492
	O393	O	0.067264	0.209141	0.303060
	O394	O	0.066352	0.291062	0.275685
	O395	O	0.105310	0.291007	0.223344
	O396	O	0.009285	0.209073	0.359584
	O397	O	0.046871	0.459213	0.279037
	O398	O	0.004795	0.459556	0.240506
	O399	O	0.105325	0.459003	0.223350
	O400	O	0.066378	0.459224	0.275647
	O401	O	0.109288	0.209009	0.341627
	O402	O	-0.000383	0.375143	0.365718
	O403	O	0.115018	0.125374	0.217674
	C404	C	0.092519	0.214098	0.326019
	C405	C	0.096794	0.124907	0.329961
	C406	C	0.092524	0.035774	0.326029
	C407	C	0.084138	0.035547	0.318371
	C408	C	0.079851	0.124613	0.314465
	C409	C	0.084142	0.213555	0.318361
	C410	C	0.070805	0.124683	0.306238
	C411	C	0.105780	0.124992	0.338418
	C412	C	0.044481	0.125475	0.310786
	C413	C	0.036264	0.125082	0.322282
	C414	C	0.032368	0.213986	0.327718
	C415	C	0.024721	0.214210	0.338338
	C416	C	0.020771	0.125306	0.343742
	C417	C	0.024686	0.036381	0.338329
	C418	C	0.032323	0.036218	0.327673
	C419	C	0.012576	0.125271	0.355232
	C420	C	0.043335	0.375113	0.275823
	C421	C	0.034340	0.375166	0.267438
	C422	C	0.030005	0.464280	0.263705
	C423	C	0.021611	0.464524	0.256036
	C424	C	0.017364	0.375283	0.251992
	C425	C	0.021676	0.286099	0.255773
	C426	C	0.030079	0.286098	0.263443
	C427	C	0.008340	0.375385	0.243656
	C428	C	0.069663	0.375153	0.271324
	C429	C	0.077993	0.375177	0.260003
	C430	C	0.081924	0.286203	0.254595
	C431	C	0.089672	0.286201	0.244194
	C432	C	0.093664	0.375262	0.238906
	C433	C	0.089721	0.464163	0.244285
	C434	C	0.081975	0.464259	0.254705
	C435	C	0.102025	0.375024	0.227671
	H436	H	0.092646	0.217306	0.240117
	H437	H	0.078909	0.217228	0.258620
	H438	H	0.095760	0.283098	0.329084
	H439	H	0.080901	0.282530	0.315331
	H440	H	0.056398	0.124886	0.271441
	H441	H	0.057729	0.374266	0.310520
	H442	H	-0.000595	0.374874	0.355497
	H443	H	0.115482	0.125597	0.227857
	H444	H	0.033363	0.217355	0.266410
	H445	H	0.018419	0.216872	0.252683
	H446	H	0.021817	0.283271	0.342504
	H447	H	0.035338	0.283125	0.323697
	H448	H	0.018310	0.533541	0.253202
	H449	H	0.033209	0.533212	0.266862
	H450	H	0.035283	-0.032836	0.323557
	H451	H	0.021744	-0.033005	0.342509
	H452	H	0.080873	-0.033371	0.315352
	H453	H	0.095807	-0.033007	0.329094
	H454	H	0.078998	0.533047	0.258814
	H455	H	0.092748	0.533167	0.240288
	Al456	Al	0.062472	-0.500190	0.437596
	Al457	Al	0.062524	-0.250041	0.437515
	Al458	Al	0.000023	-0.249916	0.375065
	Al459	Al	-0.000017	-0.499870	0.375021
	O460	O	0.072743	-0.459063	0.449536
	O461	O	0.062141	-0.375157	0.428257
	O462	O	0.062917	-0.124999	0.446845
	O463	O	0.114781	-0.459107	0.488134
	O464	O	0.053187	-0.458732	0.452957
	O465	O	0.014843	-0.458850	0.506322
	O466	O	0.053232	-0.290473	0.452949
	O467	O	0.052303	-0.209049	0.425534
	O468	O	0.010255	-0.209056	0.387079
	O469	O	0.072706	-0.290778	0.449553
	O470	O	0.071818	-0.208761	0.422132
	O471	O	0.110273	-0.208766	0.368942
	O472	O	0.014735	-0.290641	0.506207
	O473	O	0.052357	-0.040847	0.425447
	O474	O	0.010255	-0.040662	0.387005
	O475	O	0.110289	-0.040908	0.368920
	O476	O	0.071838	-0.040655	0.422116
	O477	O	0.114763	-0.290877	0.488118
	O478	O	0.005078	-0.125292	0.512347
	O479	O	0.119853	-0.374660	0.362935
	C480	C	0.097888	-0.285828	0.472771
	C481	C	0.102202	-0.375088	0.476610
	C482	C	0.097913	-0.464322	0.472691
	C483	C	0.089546	-0.464397	0.464949
	C484	C	0.085259	-0.375048	0.461068
	C485	C	0.089523	-0.285996	0.465063
	C486	C	0.076255	-0.374844	0.452690
	C487	C	0.111219	-0.375102	0.484967
	C488	C	0.049948	-0.374509	0.457366
	C489	C	0.041704	-0.374294	0.468804
	C490	C	0.037794	-0.285147	0.474237
	C491	C	0.030136	-0.285023	0.484837
	C492	C	0.026259	-0.374160	0.490327
	C493	C	0.030201	-0.463224	0.484950
	C494	C	0.037842	-0.463263	0.474326
	C495	C	0.018025	-0.374531	0.501815
	C496	C	0.048776	-0.124832	0.422309
	C497	C	0.039770	-0.124593	0.414006
	C498	C	0.035496	-0.035212	0.410077
	C499	C	0.027099	-0.035345	0.402425
	C500	C	0.022772	-0.124702	0.398598
	C501	C	0.027055	-0.214230	0.402497
	C502	C	0.035458	-0.213957	0.410131
	C503	C	0.013795	-0.124769	0.390213
	C504	C	0.075083	-0.124770	0.417731
	C505	C	0.083302	-0.124643	0.406241
	C506	C	0.087213	-0.213515	0.400780
	C507	C	0.094843	-0.213436	0.390159
	C508	C	0.098778	-0.124538	0.384807
	C509	C	0.094855	-0.035594	0.390208
	C510	C	0.087227	-0.035677	0.400835
	C511	C	0.107010	-0.124626	0.373307
	H512	H	0.097759	-0.282607	0.385964
	H513	H	0.084265	-0.282617	0.404920
	H514	H	0.101090	-0.216816	0.475856
	H515	H	0.086274	-0.217019	0.462063
	H516	H	0.061804	-0.375024	0.417981
	H517	H	0.063255	-0.124878	0.457096
	H518	H	0.004856	-0.124837	0.502070
	H519	H	0.120266	-0.375089	0.373164
	H520	H	0.038711	-0.283184	0.413137
	H521	H	0.023830	-0.283261	0.399407
	H522	H	0.027176	-0.216037	0.488928
	H523	H	0.040734	-0.216052	0.470085
	H524	H	0.023894	0.033809	0.399344
	H525	H	0.038779	0.033986	0.413049
	H526	H	0.040821	-0.532430	0.470264
	H527	H	0.027277	-0.532641	0.489103
	H528	H	0.086282	-0.533415	0.461913
	H529	H	0.101156	-0.533026	0.475761
	H530	H	0.084283	0.033544	0.404971
	H531	H	0.097797	0.033417	0.386048
	Al532	Al	0.062531	0.000129	0.437555
	Al533	Al	0.062504	0.249981	0.437643
	Al534	Al	-0.000006	0.250072	0.375045
	Al535	Al	0.000003	-0.000097	0.374975
	O536	O	0.072788	0.041170	0.449500
	O537	O	0.062159	0.125051	0.428305
	O538	O	0.062829	0.374882	0.446990
	O539	O	0.114763	0.040889	0.488162
	O540	O	0.053213	0.040708	0.452931
	O541	O	0.014765	0.040374	0.506314
	O542	O	0.053177	0.208864	0.452960
	O543	O	0.052266	0.291041	0.425607
	O544	O	0.010248	0.291026	0.386956
	O545	O	0.072731	0.208958	0.449631
	O546	O	0.071799	0.290754	0.422270
	O547	O	0.110214	0.291267	0.368945
	O548	O	0.014739	0.208429	0.506215
	O549	O	0.052259	0.458982	0.425629
	O550	O	0.010236	0.458883	0.386953
	O551	O	0.110197	0.459461	0.368891
	O552	O	0.071739	0.458835	0.422234
	O553	O	0.114809	0.208956	0.488176
	O554	O	0.005175	0.374688	0.512295
	O555	O	0.119835	0.125564	0.362917
	C556	C	0.097991	0.214074	0.472679
	C557	C	0.102271	0.124985	0.476602
	C558	C	0.097980	0.035970	0.472670
	C559	C	0.089607	0.036147	0.464955
	C560	C	0.085341	0.125153	0.461013
	C561	C	0.089612	0.214143	0.464978
	C562	C	0.076325	0.124936	0.452721
	C563	C	0.111245	0.125060	0.484958
	C564	C	0.049951	0.124720	0.457357
	C565	C	0.041680	0.124688	0.468826
	C566	C	0.037730	0.213887	0.474231
	C567	C	0.030103	0.213664	0.484843
	C568	C	0.026225	0.124516	0.490357
	C569	C	0.030172	0.035421	0.484985
	C570	C	0.037804	0.035458	0.474365
	C571	C	0.017995	0.124140	0.501838
	C572	C	0.048721	0.375009	0.422425
	C573	C	0.039731	0.374805	0.414040
	C574	C	0.035456	0.463908	0.410171
	C575	C	0.027083	0.464174	0.402437
	C576	C	0.022811	0.375252	0.398472
	C577	C	0.027055	0.286013	0.402441
	C578	C	0.035431	0.285892	0.410149
	C579	C	0.013791	0.374952	0.390134
	C580	C	0.075032	0.374809	0.417816
	C581	C	0.083245	0.375135	0.406304
	C582	C	0.087184	0.286179	0.400883
	C583	C	0.094819	0.286463	0.390273
	C584	C	0.098740	0.375598	0.384871
	C585	C	0.094824	0.464480	0.390350
	C586	C	0.087186	0.464209	0.400953
	C587	C	0.106940	0.375427	0.373351
	H588	H	0.097776	0.217520	0.386118
	H589	H	0.084246	0.216851	0.405027
	H590	H	0.101203	0.282946	0.475800
	H591	H	0.086385	0.283052	0.461897
	H592	H	0.061871	0.125355	0.418062
	H593	H	0.063113	0.375190	0.457259
	H594	H	0.004765	0.375277	0.502057
	H595	H	0.120078	0.125315	0.373205
	H596	H	0.038620	0.216972	0.413229
	H597	H	0.023793	0.217361	0.399457
	H598	H	0.027136	0.282664	0.488958
	H599	H	0.040670	0.282798	0.470088
	H600	H	0.023825	0.533136	0.399472
	H601	H	0.038665	0.532861	0.413248
	H602	H	0.040790	-0.033720	0.470274
	H603	H	0.027240	-0.033867	0.489209
	H604	H	0.086367	-0.032740	0.461914
	H605	H	0.101168	-0.032988	0.475789
	H606	H	0.084254	0.533184	0.405171
	H607	H	0.097775	0.533569	0.386255
	Al608	Al	0.067976	-0.500058	0.584164
	Al609	Al	0.067970	-0.250184	0.584081
	Al610	Al	0.005437	-0.250312	0.521649
	Al611	Al	0.005519	-0.500374	0.521603
	O612	O	0.078189	-0.459603	0.596171
	O613	O	0.067619	-0.375289	0.574821
	O614	O	0.068283	-0.125477	0.593405
	O615	O	0.120266	-0.459309	0.634578
	O616	O	0.058655	-0.459232	0.599481
	O617	O	0.019665	-0.459529	0.651771
	O618	O	0.058577	-0.291169	0.599421
	O619	O	0.057795	-0.209411	0.572008
	O620	O	0.015658	-0.209375	0.533631
	O621	O	0.078167	-0.291400	0.596093
	O622	O	0.077275	-0.209622	0.568660
	O623	O	0.115733	-0.209542	0.515489
	O624	O	0.019668	-0.291459	0.651862
	O625	O	0.057763	-0.041062	0.572050
	O626	O	0.015620	-0.041130	0.533754
	O627	O	0.115716	-0.041439	0.515540
	O628	O	0.077279	-0.041598	0.568774
	O629	O	0.120238	-0.291215	0.634595
	O630	O	0.009999	-0.125693	0.657490
	O631	O	0.125361	-0.375344	0.509452
	C632	C	0.103346	-0.286337	0.619343
	C633	C	0.107683	-0.375337	0.623118
	C634	C	0.103394	-0.464395	0.619205
	C635	C	0.095017	-0.464365	0.611538
	C636	C	0.090704	-0.375377	0.607695
	C637	C	0.094971	-0.286331	0.611629
	C638	C	0.081732	-0.375417	0.599281
	C639	C	0.116681	-0.375430	0.631456
	C640	C	0.055334	-0.375263	0.603761
	C641	C	0.047012	-0.375489	0.615100
	C642	C	0.043034	-0.286512	0.620439
	C643	C	0.035298	-0.286703	0.630885
	C644	C	0.031315	-0.375633	0.636187
	C645	C	0.035299	-0.464680	0.630859
	C646	C	0.043037	-0.464530	0.620417
	C647	C	0.022975	-0.375410	0.647496
	C648	C	0.054217	-0.125168	0.568906
	C649	C	0.045194	-0.125489	0.560579
	C650	C	0.040882	-0.036274	0.556757
	C651	C	0.032470	-0.036047	0.549100
	C652	C	0.028219	-0.125150	0.545169
	C653	C	0.032560	-0.214174	0.548917
	C654	C	0.040958	-0.214523	0.556560
	C655	C	0.019194	-0.125384	0.536864
	C656	C	0.080543	-0.125455	0.564336
	C657	C	0.088759	-0.125436	0.552830
	C658	C	0.092666	-0.214349	0.547392
	C659	C	0.100299	-0.214581	0.536777
	C660	C	0.104254	-0.125648	0.531402
	C661	C	0.100302	-0.036573	0.536739
	C662	C	0.092664	-0.036439	0.547352
	C663	C	0.112471	-0.125481	0.519899
	H664	H	0.103219	-0.283453	0.532619
	H665	H	0.089702	-0.283221	0.551521
	H666	H	0.106544	-0.217493	0.622499
	H667	H	0.091690	-0.217599	0.608654
	H668	H	0.067316	-0.374847	0.564562
	H669	H	0.068449	-0.125063	0.603695
	H670	H	0.009906	-0.125922	0.647211
	H671	H	0.125649	-0.375137	0.519736
	H672	H	0.044233	-0.283573	0.559435
	H673	H	0.029355	-0.283208	0.545837
	H674	H	0.032342	-0.218045	0.635010
	H675	H	0.046011	-0.217605	0.616353
	H676	H	0.029180	0.032603	0.546155
	H677	H	0.044130	0.032414	0.559834
	H678	H	0.046017	-0.533580	0.616300
	H679	H	0.032340	-0.533906	0.634962
	H680	H	0.091803	-0.533370	0.608429
	H681	H	0.106655	-0.533232	0.622218
	H682	H	0.089698	0.032418	0.551456
	H683	H	0.103232	0.032206	0.532521
	Al684	Al	0.067982	-0.000339	0.584117
	Al685	Al	0.067972	0.249579	0.584082
	Al686	Al	0.005481	0.249590	0.521579
	Al687	Al	0.005424	-0.000427	0.521697
	O688	O	0.078154	0.040612	0.596160
	O689	O	0.067635	0.124508	0.574789
	O690	O	0.068278	0.374461	0.593508
	O691	O	0.120232	0.040205	0.634620
	O692	O	0.058625	0.040231	0.599464
	O693	O	0.019652	0.040554	0.651834
	O694	O	0.058616	0.208439	0.599386
	O695	O	0.057775	0.290632	0.572083
	O696	O	0.015724	0.290463	0.533590
	O697	O	0.078174	0.208783	0.596140
	O698	O	0.077269	0.290392	0.568687
	O699	O	0.115738	0.290927	0.515578
	O700	O	0.019669	0.208550	0.651804
	O701	O	0.057700	0.458905	0.572267
	O702	O	0.015675	0.458666	0.533694
	O703	O	0.115674	0.459139	0.515469
	O704	O	0.077250	0.458696	0.568780
	O705	O	0.120144	0.208657	0.634753
	O706	O	0.009936	0.374659	0.657432
	O707	O	0.125322	0.125019	0.509470
	C708	C	0.103389	0.213522	0.619257
	C709	C	0.107664	0.124222	0.623143
	C710	C	0.103392	0.035194	0.619229
	C711	C	0.095000	0.035095	0.611548
	C712	C	0.090714	0.124439	0.607686
	C713	C	0.095000	0.213577	0.611569
	C714	C	0.081715	0.124856	0.599306
	C715	C	0.116641	0.124312	0.631573
	C716	C	0.055319	0.124369	0.603741
	C717	C	0.047019	0.123927	0.615077
	C718	C	0.043016	0.212854	0.620337
	C719	C	0.035278	0.213047	0.630798
	C720	C	0.031318	0.124265	0.636190
	C721	C	0.035310	0.035221	0.630946
	C722	C	0.043057	0.034930	0.620501
	C723	C	0.022976	0.124550	0.647485
	C724	C	0.054198	0.374691	0.568998
	C725	C	0.045189	0.374922	0.560663
	C726	C	0.040865	0.464021	0.556842
	C727	C	0.032491	0.463985	0.549137
	C728	C	0.028237	0.374731	0.545138
	C729	C	0.032570	0.285533	0.548911
	C730	C	0.040957	0.285657	0.556614
	C731	C	0.019245	0.374520	0.536797
	C732	C	0.080537	0.374806	0.564336
	C733	C	0.088762	0.375212	0.552855
	C734	C	0.092675	0.286367	0.547439
	C735	C	0.100299	0.286294	0.536822
	C736	C	0.104209	0.375209	0.531386
	C737	C	0.100296	0.464047	0.536806
	C738	C	0.092672	0.464139	0.547431
	C739	C	0.112454	0.375012	0.519872
	H740	H	0.103221	0.217493	0.532645
	H741	H	0.089727	0.217509	0.551575
	H742	H	0.106608	0.282563	0.622347
	H743	H	0.091789	0.282623	0.608513
	H744	H	0.067267	0.124574	0.564601
	H745	H	0.068469	0.375169	0.603774
	H746	H	0.009561	0.374765	0.647274
	H747	H	0.125579	0.124856	0.519799
	H748	H	0.044264	0.216779	0.559511
	H749	H	0.029375	0.216691	0.545785
	H750	H	0.032292	0.282290	0.634787
	H751	H	0.045962	0.281977	0.616176
	H752	H	0.029223	0.532921	0.546175
	H753	H	0.044078	0.533308	0.559901
	H754	H	0.046042	-0.034214	0.616479
	H755	H	0.032322	-0.033916	0.635029
	H756	H	0.091777	-0.033907	0.608466
	H757	H	0.106616	-0.033798	0.622286
	H758	H	0.089733	0.533262	0.551586
	H759	H	0.103254	0.532752	0.532605
	Al760	Al	0.072646	-0.500323	0.729370
	Al761	Al	0.072633	-0.250527	0.729348
	Al762	Al	0.010164	-0.250530	0.666873
	Al763	Al	0.010147	-0.500585	0.666835
	O764	O	0.082716	-0.459744	0.741699
	O765	O	0.072424	-0.375706	0.719961
	O766	O	0.072855	-0.125589	0.738736
	O767	O	0.125040	-0.459707	0.779593
	O768	O	0.062881	-0.459727	0.743911
	O769	O	0.020446	-0.460076	0.788800
	O770	O	0.062909	-0.291647	0.744084
	O771	O	0.062504	-0.209807	0.717141
	O772	O	0.020240	-0.209525	0.679147
	O773	O	0.082673	-0.291787	0.741687
	O774	O	0.082195	-0.209797	0.714358
	O775	O	0.121104	-0.209710	0.661905
	O776	O	0.020451	-0.292172	0.788831
	O777	O	0.062592	-0.041529	0.717068
	O778	O	0.020237	-0.041224	0.679146
	O779	O	0.121078	-0.041825	0.661903
	O780	O	0.082119	-0.041695	0.714230
	O781	O	0.125118	-0.291562	0.779397
	O782	O	0.010432	-0.126283	0.792199
	O783	O	0.130835	-0.375551	0.655931
	C784	C	0.108118	-0.286686	0.764327
	C785	C	0.112430	-0.375810	0.768192
	C786	C	0.108067	-0.464695	0.764458
	C787	C	0.099622	-0.464507	0.756934
	C788	C	0.095320	-0.375506	0.753059
	C789	C	0.099664	-0.286464	0.756801
	C790	C	0.086256	-0.375645	0.744812
	C791	C	0.121494	-0.375641	0.776380
	C792	C	0.059347	-0.375647	0.747801
	C793	C	0.050353	-0.375798	0.757699
	C794	C	0.046071	-0.286943	0.762400
	C795	C	0.037649	-0.287187	0.771337
	C796	C	0.033253	-0.376060	0.775719
	C797	C	0.037547	-0.464962	0.771086
	C798	C	0.045969	-0.464598	0.762126
	C799	C	0.024095	-0.375902	0.785220
	C800	C	0.058986	-0.125563	0.713995
	C801	C	0.049912	-0.125732	0.705751
	C802	C	0.045597	-0.036750	0.701965
	C803	C	0.037163	-0.036498	0.694394
	C804	C	0.032854	-0.125377	0.690526
	C805	C	0.037155	-0.214498	0.694353
	C806	C	0.045592	-0.214746	0.701926
	C807	C	0.023799	-0.125301	0.682236
	C808	C	0.085486	-0.125787	0.709995
	C809	C	0.093788	-0.125786	0.698687
	C810	C	0.097823	-0.214654	0.693467
	C811	C	0.105551	-0.214563	0.683026
	C812	C	0.109478	-0.125683	0.677601
	C813	C	0.105467	-0.036864	0.682847
	C814	C	0.097740	-0.036805	0.693283
	C815	C	0.117818	-0.125703	0.666259
	H816	H	0.108633	-0.283273	0.679102
	H817	H	0.094902	-0.283512	0.697675
	H818	H	0.111411	-0.218017	0.767270
	H819	H	0.096402	-0.217642	0.753806
	H820	H	0.072170	-0.375595	0.709639
	H821	H	0.072886	-0.125548	0.748985
	H822	H	0.010907	-0.126853	0.781920
	H823	H	0.130976	-0.375793	0.666237
	H824	H	0.048828	-0.283714	0.704847
	H825	H	0.033900	-0.283347	0.691323
	H826	H	0.034401	-0.218228	0.774932
	H827	H	0.049349	-0.217793	0.758989
	H828	H	0.033920	0.032454	0.691383
	H829	H	0.048867	0.032167	0.704971
	H830	H	0.049194	-0.533269	0.758505
	H831	H	0.034229	-0.533899	0.774479
	H832	H	0.096329	-0.533565	0.753987
	H833	H	0.111290	-0.533834	0.767480
	H834	H	0.094743	0.031883	0.697304
	H835	H	0.108489	0.031992	0.678743
	Al836	Al	0.072684	-0.000585	0.729347
	Al837	Al	0.072696	0.249429	0.729353
	Al838	Al	0.010161	0.249503	0.666796
	Al839	Al	0.010127	-0.000565	0.666820
	O840	O	0.082739	0.040372	0.741664
	O841	O	0.072480	0.124468	0.719983
	O842	O	0.072797	0.374337	0.738684
	O843	O	0.125092	0.040411	0.779513
	O844	O	0.062925	0.040000	0.744008
	O845	O	0.020477	0.040389	0.788745
	O846	O	0.062994	0.208384	0.744013
	O847	O	0.062537	0.290003	0.717143
	O848	O	0.020202	0.290254	0.679121
	O849	O	0.082727	0.208635	0.741684
	O850	O	0.082204	0.290450	0.714315
	O851	O	0.121068	0.291004	0.661905
	O852	O	0.020479	0.208498	0.788850
	O853	O	0.062519	0.458260	0.717167
	O854	O	0.020250	0.458300	0.679095
	O855	O	0.121073	0.459167	0.661848
	O856	O	0.082105	0.458655	0.714254
	O857	O	0.125061	0.208666	0.779496
	O858	O	0.010378	0.373925	0.792161
	O859	O	0.130747	0.124471	0.655993
	C860	C	0.108143	0.213961	0.764288
	C861	C	0.112404	0.124647	0.768250
	C862	C	0.108021	0.035485	0.764610
	C863	C	0.099577	0.035341	0.757065
	C864	C	0.095328	0.124703	0.753088
	C865	C	0.099693	0.213917	0.756777
	C866	C	0.086296	0.124522	0.744790
	C867	C	0.121508	0.124451	0.776395
	C868	C	0.059415	0.124309	0.747821
	C869	C	0.050389	0.124613	0.757688
	C870	C	0.046111	0.213669	0.762346
	C871	C	0.037652	0.213759	0.771244
	C872	C	0.033264	0.124670	0.775670
	C873	C	0.037552	0.035631	0.771033
	C874	C	0.046010	0.035600	0.762144
	C875	C	0.024100	0.124773	0.785169
	C876	C	0.058959	0.374133	0.714050
	C877	C	0.049915	0.374270	0.705778
	C878	C	0.045586	0.463192	0.701945
	C879	C	0.037152	0.463248	0.694376
	C880	C	0.032834	0.374160	0.690522
	C881	C	0.037183	0.285168	0.694303
	C882	C	0.045608	0.285330	0.701900
	C883	C	0.023791	0.374230	0.682268
	C884	C	0.085465	0.374717	0.709999
	C885	C	0.093845	0.375056	0.698772
	C886	C	0.097860	0.285973	0.693485
	C887	C	0.105583	0.286027	0.683025
	C888	C	0.109514	0.375258	0.677642
	C889	C	0.105520	0.464218	0.682981
	C890	C	0.097804	0.464147	0.693442
	C891	C	0.117765	0.375055	0.666190
	H892	H	0.108571	0.217167	0.678866
	H893	H	0.094891	0.216848	0.697570
	H894	H	0.111471	0.283021	0.767111
	H895	H	0.096494	0.282809	0.753655
	H896	H	0.072102	0.124402	0.709760
	H897	H	0.072684	0.374583	0.748992
	H898	H	0.010991	0.373819	0.781769
	H899	H	0.131045	0.124443	0.666254
	H900	H	0.048859	0.216635	0.704908
	H901	H	0.033904	0.216379	0.691344
	H902	H	0.034448	0.282724	0.774843
	H903	H	0.049416	0.282689	0.758883
	H904	H	0.033862	0.532274	0.691455
	H905	H	0.048825	0.531956	0.704988
	H906	H	0.049232	-0.033758	0.758604
	H907	H	0.034252	-0.033456	0.774473
	H908	H	0.096263	-0.033670	0.754175
	H909	H	0.111261	-0.033582	0.767666
	H910	H	0.094765	0.533241	0.697490
	H911	H	0.108415	0.533324	0.678790
	Al912	Al	0.072424	-0.501248	0.864129
	Al913	Al	0.072405	-0.250130	0.864223
	Al914	Al	0.009870	-0.251512	0.801859
	Al915	Al	0.009854	-0.500524	0.801718
	O916	O	0.081822	-0.460194	0.877747
	O917	O	0.072891	-0.375650	0.854629
	O918	O	0.071603	-0.125762	0.873684
	O919	O	0.125622	-0.460447	0.912531
	O920	O	0.060954	-0.460210	0.875320
	O921	O	0.011756	-0.458945	0.864991
	O922	O	0.060988	-0.291651	0.875428
	O923	O	0.063057	-0.209876	0.850081
	O924	O	0.019262	-0.210264	0.815355
	O925	O	0.081817	-0.292230	0.877742
	O926	O	0.082969	-0.209101	0.851267
	O927	O	0.125464	-0.209467	0.806464
	O928	O	0.011790	-0.290553	0.865082
	O929	O	0.063142	-0.042026	0.850008
	O930	O	0.019326	-0.042118	0.815260
	O931	O	0.125440	-0.041444	0.806370
	O932	O	0.083013	-0.041278	0.851362
	O933	O	0.125678	-0.292190	0.912531
	O934	O	0.001131	-0.124928	0.865459
	O935	O	0.135295	-0.375506	0.801203
	C936	C	0.108223	-0.286490	0.898140
	C937	C	0.112787	-0.376120	0.901501
	C938	C	0.108286	-0.465763	0.897956
	C939	C	0.099483	-0.465907	0.891347
	C940	C	0.094906	-0.376228	0.888089
	C941	C	0.099420	-0.286489	0.891542
	C942	C	0.085539	-0.376201	0.880613
	C943	C	0.122030	-0.376379	0.909424
	C944	C	0.056777	-0.375932	0.874780
	C945	C	0.046174	-0.375822	0.872952
	C946	C	0.041225	-0.285795	0.871487
	C947	C	0.031544	-0.285463	0.868621
	C948	C	0.026573	-0.375395	0.867163
	C949	C	0.031535	-0.465499	0.868500
	C950	C	0.041216	-0.465720	0.871342
	C951	C	0.015980	-0.374804	0.865531
	C952	C	0.059505	-0.125813	0.846932
	C953	C	0.050260	-0.125885	0.838953
	C954	C	0.045779	-0.036364	0.835365
	C955	C	0.036971	-0.036438	0.828748
	C956	C	0.032393	-0.126137	0.825604
	C957	C	0.036898	-0.215621	0.829052
	C958	C	0.045712	-0.215617	0.835649
	C959	C	0.022987	-0.126333	0.818155
	C960	C	0.086618	-0.125365	0.847673
	C961	C	0.095774	-0.125429	0.838195
	C962	C	0.100151	-0.214436	0.833762
	C963	C	0.108601	-0.214390	0.824822
	C964	C	0.112918	-0.125466	0.820173
	C965	C	0.108551	-0.036495	0.824652
	C966	C	0.100111	-0.036493	0.833589
	C967	C	0.121896	-0.125481	0.810223
	H968	H	0.111869	-0.283364	0.821363
	H969	H	0.096893	-0.283512	0.837315
	H970	H	0.111570	-0.216576	0.900762
	H971	H	0.096017	-0.216801	0.888997
	H972	H	0.073227	-0.375978	0.844274
	H973	H	0.070328	-0.125897	0.883822
	H974	H	0.002560	-0.125125	0.855343
	H975	H	0.135308	-0.375435	0.811465
	H976	H	0.049049	-0.285416	0.838344
	H977	H	0.033478	-0.285284	0.826599
	H978	H	0.027829	-0.215080	0.867615
	H979	H	0.044946	-0.215899	0.872705
	H980	H	0.033626	0.033468	0.826042
	H981	H	0.049164	0.033620	0.837842
	H982	H	0.044938	-0.535822	0.872437
	H983	H	0.027800	-0.535540	0.867392
	H984	H	0.096121	-0.535690	0.888675
	H985	H	0.111691	-0.535690	0.900491
	H986	H	0.096824	0.032355	0.837006
	H987	H	0.111788	0.032383	0.821038
	Al988	Al	0.072383	-0.001321	0.864264
	Al989	Al	0.072380	0.249775	0.864199
	Al990	Al	0.009890	0.248685	0.801767
	Al991	Al	0.009925	-0.000643	0.801709
	O992	O	0.081737	0.040301	0.877878
	O993	O	0.072935	0.124321	0.854661
	O994	O	0.071498	0.374405	0.873600
	O995	O	0.125627	0.039709	0.912501
	O996	O	0.060910	0.039862	0.875391
	O997	O	0.011736	0.040916	0.864880
	O998	O	0.060947	0.208114	0.875468
	O999	O	0.063079	0.290405	0.850134
	O1000	O	0.019245	0.290638	0.815290
	O1001	O	0.081758	0.208574	0.877850
	O1002	O	0.082989	0.290025	0.851210
	O1003	O	0.125424	0.289699	0.806496
	O1004	O	0.011752	0.209211	0.864995
	O1005	O	0.063135	0.458535	0.849911
	O1006	O	0.019308	0.458723	0.815274
	O1007	O	0.125477	0.457968	0.806567
	O1008	O	0.082959	0.458271	0.851208
	O1009	O	0.125670	0.207837	0.912439
	O1010	O	0.001108	0.374754	0.865504
	O1011	O	0.135340	0.124173	0.801124
	C1012	C	0.108280	0.213867	0.897961
	C1013	C	0.112760	0.124071	0.901456
	C1014	C	0.108225	0.034537	0.898045
	C1015	C	0.099416	0.034627	0.891469
	C1016	C	0.094887	0.124390	0.888127
	C1017	C	0.099462	0.214043	0.891392
	C1018	C	0.085442	0.124387	0.880748
	C1019	C	0.122022	0.123914	0.909357
	C1020	C	0.056720	0.124219	0.874824
	C1021	C	0.046126	0.124567	0.872993
	C1022	C	0.041171	0.214677	0.871496
	C1023	C	0.031516	0.214666	0.868622
	C1024	C	0.026532	0.124739	0.867203
	C1025	C	0.031515	0.034620	0.868524
	C1026	C	0.041167	0.034614	0.871395
	C1027	C	0.015933	0.124982	0.865457
	C1028	C	0.059492	0.374352	0.846883
	C1029	C	0.050239	0.374217	0.838982
	C1030	C	0.045765	0.463884	0.835416
	C1031	C	0.036966	0.463941	0.828807
	C1032	C	0.032392	0.374149	0.825569
	C1033	C	0.036919	0.284550	0.828960
	C1034	C	0.045702	0.284442	0.835598
	C1035	C	0.022968	0.374396	0.818119
	C1036	C	0.086600	0.374207	0.847624
	C1037	C	0.095780	0.374237	0.838157
	C1038	C	0.100144	0.285202	0.833701
	C1039	C	0.108601	0.285075	0.824811
	C1040	C	0.112920	0.374053	0.820209
	C1041	C	0.108599	0.463108	0.824757
	C1042	C	0.100136	0.463140	0.833652
	C1043	C	0.121915	0.373780	0.810278
	H1044	H	0.111848	0.216391	0.821291
	H1045	H	0.096893	0.216299	0.837226
	H1046	H	0.111675	0.283743	0.900480
	H1047	H	0.096079	0.283706	0.888854
	H1048	H	0.073649	0.124516	0.844394
	H1049	H	0.070044	0.373916	0.883797
	H1050	H	0.002584	0.374812	0.855343
	H1051	H	0.135193	0.123850	0.811412
	H1052	H	0.049044	0.214480	0.838257
	H1053	H	0.033506	0.214829	0.826437
	H1054	H	0.027776	0.284802	0.867586
	H1055	H	0.044892	0.284622	0.872730
	H1056	H	0.033582	0.533804	0.826168
	H1057	H	0.049176	0.533933	0.837932
	H1058	H	0.044894	-0.035285	0.872572
	H1059	H	0.027755	-0.035356	0.867417
	H1060	H	0.096002	-0.034829	0.888928
	H1061	H	0.111586	-0.035429	0.900596
	H1062	H	0.096868	0.532157	0.837147
	H1063	H	0.111880	0.531893	0.821239
	Al1064	Al	0.062488	-0.500062	0.937484
	Al1065	Al	0.062486	-0.249741	0.937530
	Al1066	Al	-0.000060	-0.249967	0.875081
	Al1067	Al	-0.000012	-0.500123	0.875021
	O1068	O	0.071420	-0.458750	0.952123
	O1069	O	0.063653	-0.374990	0.927968
	O1070	O	0.061290	-0.125011	0.947113
	O1071	O	0.115999	-0.458814	0.985388
	O1072	O	0.050728	-0.458699	0.947491
	O1073	O	0.001514	-0.458477	0.937111
	O1074	O	0.050686	-0.290872	0.947600
	O1075	O	0.053520	-0.208928	0.922869
	O1076	O	0.008890	-0.208786	0.889713
	O1077	O	0.071374	-0.290730	0.952274
	O1078	O	0.074257	-0.209256	0.927465
	O1079	O	0.123444	-0.210248	0.937909
	O1080	O	0.001525	-0.290104	0.937074
	O1081	O	0.053514	-0.041000	0.922922
	O1082	O	0.008886	-0.040760	0.889677
	O1083	O	0.123496	-0.041806	0.937901
	O1084	O	0.074244	-0.041159	0.927480
	O1085	O	0.116056	-0.290868	0.985245
	O1086	O	-0.009073	-0.124248	0.938855
	O1087	O	0.134011	-0.375991	0.936178
	C1088	C	0.098228	-0.285274	0.971723
	C1089	C	0.102857	-0.375009	0.974900
	C1090	C	0.098191	-0.464762	0.971763
	C1091	C	0.089198	-0.464746	0.965747
	C1092	C	0.084573	-0.374993	0.962570
	C1093	C	0.089230	-0.285353	0.965720
	C1094	C	0.075089	-0.374780	0.955182
	C1095	C	0.112308	-0.374834	0.982359
	C1096	C	0.046482	-0.374926	0.947085
	C1097	C	0.035879	-0.375032	0.945381
	C1098	C	0.030920	-0.284880	0.943980
	C1099	C	0.021256	-0.284638	0.941112
	C1100	C	0.016291	-0.374361	0.939622
	C1101	C	0.021242	-0.464387	0.941108
	C1102	C	0.030902	-0.464829	0.943980
	C1103	C	0.005719	-0.374303	0.937711
	C1104	C	0.049818	-0.124809	0.919918
	C1105	C	0.040345	-0.124771	0.912488
	C1106	C	0.035718	-0.034900	0.909288
	C1107	C	0.026741	-0.035047	0.903256
	C1108	C	0.022060	-0.124748	0.900123
	C1109	C	0.026703	-0.214609	0.903262
	C1110	C	0.035685	-0.214495	0.909288
	C1111	C	0.012576	-0.124723	0.892709
	C1112	C	0.078450	-0.125085	0.928024
	C1113	C	0.089064	-0.125057	0.929616
	C1114	C	0.094030	-0.215010	0.931008
	C1115	C	0.103686	-0.215234	0.933943
	C1116	C	0.108661	-0.125417	0.935493
	C1117	C	0.103698	-0.035547	0.934054
	C1118	C	0.094034	-0.035125	0.931120
	C1119	C	0.119269	-0.125821	0.937328
	H1120	H	0.107383	-0.285457	0.935005
	H1121	H	0.090276	-0.284875	0.929828
	H1122	H	0.101683	-0.214993	0.973958
	H1123	H	0.085759	-0.214939	0.963412
	H1124	H	0.065307	-0.374687	0.917898
	H1125	H	0.059686	-0.125081	0.957250
	H1126	H	-0.007613	-0.124212	0.928656
	H1127	H	0.132568	-0.375639	0.946324
	H1128	H	0.039134	-0.284694	0.911611
	H1129	H	0.023239	-0.284964	0.900964
	H1130	H	0.017560	-0.214358	0.939892
	H1131	H	0.034660	-0.214964	0.945091
	H1132	H	0.023285	0.035027	0.900950
	H1133	H	0.039190	0.035270	0.911564
	H1134	H	0.034595	-0.535026	0.945056
	H1135	H	0.017529	-0.534204	0.939882
	H1136	H	0.085714	-0.534947	0.963496
	H1137	H	0.101641	-0.535229	0.974070
	H1138	H	0.090333	0.035351	0.930035
	H1139	H	0.107459	0.034255	0.935251
	Al1140	Al	0.062510	0.000293	0.937584
	Al1141	Al	0.062476	0.250076	0.937516
	Al1142	Al	0.000003	0.250088	0.875057
	Al1143	Al	-0.000028	0.000025	0.874937
	O1144	O	0.071419	0.040973	0.952235
	O1145	O	0.063644	0.124947	0.927989
	O1146	O	0.061319	0.375116	0.947036
	O1147	O	0.116089	0.041126	0.985181
	O1148	O	0.050715	0.041177	0.947664
	O1149	O	0.001514	0.041639	0.937052
	O1150	O	0.050685	0.209338	0.947590
	O1151	O	0.053615	0.291156	0.922742
	O1152	O	0.008916	0.290789	0.889717
	O1153	O	0.071377	0.209014	0.952347
	O1154	O	0.074258	0.290380	0.927440
	O1155	O	0.123440	0.289957	0.937895
	O1156	O	0.001510	0.209804	0.937024
	O1157	O	0.053547	0.458922	0.922816
	O1158	O	0.008927	0.458678	0.889652
	O1159	O	0.123463	0.458208	0.937984
	O1160	O	0.074256	0.458897	0.927391
	O1161	O	0.116091	0.209217	0.985210
	O1162	O	-0.009039	0.376050	0.938859
	O1163	O	0.134052	0.124005	0.936106
	C1164	C	0.098253	0.215038	0.971747
	C1165	C	0.102926	0.125328	0.974810
	C1166	C	0.098265	0.035511	0.971682
	C1167	C	0.089256	0.035446	0.965729
	C1168	C	0.084602	0.125169	0.962613
	C1169	C	0.089252	0.214911	0.965770
	C1170	C	0.075116	0.125017	0.955220
	C1171	C	0.112374	0.125075	0.982272
	C1172	C	0.046475	0.125103	0.947137
	C1173	C	0.035877	0.124965	0.945496
	C1174	C	0.030913	0.215018	0.944094
	C1175	C	0.021251	0.215283	0.941176
	C1176	C	0.016291	0.125474	0.939638
	C1177	C	0.021245	0.035263	0.941073
	C1178	C	0.030898	0.035124	0.944010
	C1179	C	0.005731	0.125721	0.937634
	C1180	C	0.049839	0.375005	0.919861
	C1181	C	0.040381	0.374979	0.912457
	C1182	C	0.035705	0.464670	0.909337
	C1183	C	0.026729	0.464560	0.903323
	C1184	C	0.022051	0.374854	0.900199
	C1185	C	0.026752	0.285224	0.903263
	C1186	C	0.035742	0.285254	0.909262
	C1187	C	0.012636	0.374833	0.892618
	C1188	C	0.078449	0.374730	0.927953
	C1189	C	0.089048	0.374695	0.929631
	C1190	C	0.094023	0.284494	0.930922
	C1191	C	0.103680	0.284219	0.933807
	C1192	C	0.108634	0.374073	0.935436
	C1193	C	0.103679	0.464251	0.934001
	C1194	C	0.094021	0.464591	0.931099
	C1195	C	0.119224	0.374134	0.937346
	H1196	H	0.107451	0.214405	0.934822
	H1197	H	0.090300	0.214425	0.929630
	H1198	H	0.101746	0.285530	0.974013
	H1199	H	0.085814	0.285226	0.963413
	H1200	H	0.065091	0.124640	0.917848
	H1201	H	0.059756	0.375280	0.957097
	H1202	H	-0.007454	0.376432	0.928726
	H1203	H	0.132678	0.124472	0.946243
	H1204	H	0.039194	0.214877	0.911567
	H1205	H	0.023301	0.215036	0.900932
	H1206	H	0.017569	0.285594	0.940051
	H1207	H	0.034650	0.285047	0.945291
	H1208	H	0.023260	0.534723	0.901001
	H1209	H	0.039142	0.534645	0.911716
	H1210	H	0.034586	-0.034921	0.945151
	H1211	H	0.017518	-0.034583	0.939888
	H1212	H	0.085795	-0.034771	0.963350
	H1213	H	0.101756	-0.034706	0.973881
	H1214	H	0.090277	0.534532	0.929974
	H1215	H	0.107391	0.534458	0.935195
	Al1216	Al	0.187470	-0.500013	0.062416
	Al1217	Al	0.187496	-0.250055	0.062413
	Al1218	Al	0.125000	-0.250037	-0.000055
	Al1219	Al	0.124967	-0.499990	-0.000026
	O1220	O	0.196387	-0.458756	0.077169
	O1221	O	0.188701	-0.374961	0.052892
	O1222	O	0.186296	-0.124988	0.071888
	O1223	O	0.241057	-0.459190	0.110280
	O1224	O	0.175687	-0.459349	0.072347
	O1225	O	0.126498	-0.457998	0.061972
	O1226	O	0.175726	-0.291233	0.072535
	O1227	O	0.178514	-0.209173	0.047781
	O1228	O	0.133870	-0.208879	0.014756
	O1229	O	0.196428	-0.290784	0.077167
	O1230	O	0.199262	-0.209149	0.052181
	O1231	O	0.248465	-0.210705	0.062743
	O1232	O	0.126524	-0.289651	0.062093
	O1233	O	0.178604	-0.041110	0.047661
	O1234	O	0.133967	-0.041073	0.014515
	O1235	O	0.248507	-0.042225	0.062911
	O1236	O	0.199289	-0.040793	0.052374
	O1237	O	0.241138	-0.291393	0.110008
	O1238	O	0.115936	-0.124073	0.063802
	O1239	O	0.259056	-0.375533	0.061103
	C1240	C	0.223251	-0.285764	0.096625
	C1241	C	0.227864	-0.375457	0.099882
	C1242	C	0.223169	-0.465149	0.096797
	C1243	C	0.214183	-0.464904	0.090825
	C1244	C	0.209559	-0.375141	0.087635
	C1245	C	0.214260	-0.285555	0.090667
	C1246	C	0.200103	-0.374918	0.080162
	C1247	C	0.237382	-0.375291	0.107196
	C1248	C	0.171491	-0.375175	0.071911
	C1249	C	0.160898	-0.375141	0.070231
	C1250	C	0.155955	-0.284918	0.068969
	C1251	C	0.146297	-0.284585	0.066112
	C1252	C	0.141313	-0.374260	0.064473
	C1253	C	0.146243	-0.464341	0.065959
	C1254	C	0.155896	-0.464854	0.068838
	C1255	C	0.130717	-0.373896	0.062619
	C1256	C	0.174843	-0.125020	0.044805
	C1257	C	0.165391	-0.124914	0.037323
	C1258	C	0.160752	-0.035100	0.034124
	C1259	C	0.151755	-0.035059	0.028140
	C1260	C	0.147074	-0.124726	0.025047
	C1261	C	0.151720	-0.214565	0.028188
	C1262	C	0.160723	-0.214592	0.034179
	C1263	C	0.137621	-0.124935	0.017570
	C1264	C	0.203485	-0.125127	0.052844
	C1265	C	0.214090	-0.125483	0.054575
	C1266	C	0.219050	-0.215766	0.055873
	C1267	C	0.228721	-0.215997	0.058760
	C1268	C	0.233695	-0.126086	0.060379
	C1269	C	0.228750	-0.035855	0.058911
	C1270	C	0.219093	-0.035645	0.056049
	C1271	C	0.244307	-0.126352	0.062214
	H1272	H	0.232439	-0.286010	0.059865
	H1273	H	0.215303	-0.285794	0.054744
	H1274	H	0.226768	-0.215787	0.098800
	H1275	H	0.210815	-0.215157	0.088326
	H1276	H	0.190304	-0.375302	0.042771
	H1277	H	0.184568	-0.125189	0.082026
	H1278	H	0.117414	-0.123988	0.053772
	H1279	H	0.257724	-0.374921	0.071200
	H1280	H	0.164160	-0.284795	0.036468
	H1281	H	0.148255	-0.284841	0.025924
	H1282	H	0.142583	-0.214635	0.064990
	H1283	H	0.159687	-0.215042	0.070093
	H1284	H	0.148293	0.035208	0.025798
	H1285	H	0.164210	0.035030	0.036407
	H1286	H	0.159643	-0.534887	0.069828
	H1287	H	0.142511	-0.534373	0.064735
	H1288	H	0.210659	-0.535071	0.088607
	H1289	H	0.226621	-0.535160	0.099141
	H1290	H	0.215359	0.034636	0.055023
	H1291	H	0.232473	0.034145	0.060101
	Al1292	Al	0.187530	0.000116	0.062410
	Al1293	Al	0.187499	0.250062	0.062338
	Al1294	Al	0.124989	0.249985	0.000026
	Al1295	Al	0.124997	0.000082	-0.000085
	O1296	O	0.196309	0.041448	0.077318
	O1297	O	0.188674	0.125024	0.052848
	O1298	O	0.186386	0.374962	0.071924
	O1299	O	0.241023	0.040666	0.110293
	O1300	O	0.175731	0.040442	0.072440
	O1301	O	0.126526	0.041612	0.061988
	O1302	O	0.175729	0.208872	0.072482
	O1303	O	0.178597	0.291320	0.047693
	O1304	O	0.133925	0.290862	0.014707
	O1305	O	0.196445	0.209376	0.077038
	O1306	O	0.199263	0.291310	0.052277
	O1307	O	0.248445	0.290073	0.062798
	O1308	O	0.126553	0.210155	0.062055
	O1309	O	0.178618	0.459038	0.047640
	O1310	O	0.133873	0.458972	0.014676
	O1311	O	0.248473	0.458263	0.063009
	O1312	O	0.199283	0.459549	0.052362
	O1313	O	0.241094	0.208697	0.110183
	O1314	O	0.115925	0.375974	0.063767
	O1315	O	0.259066	0.124424	0.061113
	C1316	C	0.223253	0.214606	0.096607
	C1317	C	0.227864	0.124808	0.099875
	C1318	C	0.223199	0.035029	0.096749
	C1319	C	0.214185	0.035159	0.090759
	C1320	C	0.209558	0.124989	0.087548
	C1321	C	0.214255	0.214577	0.090583
	C1322	C	0.200072	0.125258	0.080163
	C1323	C	0.237356	0.124782	0.107278
	C1324	C	0.171533	0.124699	0.071959
	C1325	C	0.160916	0.125043	0.070371
	C1326	C	0.155964	0.215266	0.068933
	C1327	C	0.146305	0.215571	0.066032
	C1328	C	0.141326	0.125499	0.064576
	C1329	C	0.146262	0.035265	0.066107
	C1330	C	0.155922	0.035047	0.069001
	C1331	C	0.130743	0.125756	0.062667
	C1332	C	0.174877	0.375200	0.044719
	C1333	C	0.165368	0.375359	0.037375
	C1334	C	0.160743	0.465011	0.034146
	C1335	C	0.151737	0.465130	0.028181
	C1336	C	0.147063	0.375375	0.025104
	C1337	C	0.151698	0.285712	0.028315
	C1338	C	0.160688	0.285629	0.034297
	C1339	C	0.137599	0.375183	0.017667
	C1340	C	0.203479	0.375380	0.052861
	C1341	C	0.214080	0.375176	0.054569
	C1342	C	0.219040	0.285112	0.055903
	C1343	C	0.228701	0.284879	0.058817
	C1344	C	0.233672	0.374732	0.060423
	C1345	C	0.228725	0.464777	0.058995
	C1346	C	0.219058	0.465000	0.056090
	C1347	C	0.244255	0.374403	0.062303
	H1348	H	0.232393	0.214560	0.059930
	H1349	H	0.215320	0.215016	0.054696
	H1350	H	0.226747	0.284818	0.098793
	H1351	H	0.210831	0.284953	0.088254
	H1352	H	0.190242	0.124975	0.042712
	H1353	H	0.185119	0.374495	0.082102
	H1354	H	0.117307	0.376278	0.053602
	H1355	H	0.257619	0.125122	0.071238
	H1356	H	0.164138	0.215304	0.036579
	H1357	H	0.148200	0.215582	0.026123
	H1358	H	0.142597	0.285705	0.064784
	H1359	H	0.159713	0.285211	0.070010
	H1360	H	0.148279	0.535181	0.025850
	H1361	H	0.164249	0.535236	0.036341
	H1362	H	0.159642	-0.035139	0.070125
	H1363	H	0.142528	-0.034693	0.064929
	H1364	H	0.210683	-0.035050	0.088571
	H1365	H	0.226630	-0.035253	0.099105
	H1366	H	0.215342	0.534986	0.055048
	H1367	H	0.232458	0.534886	0.060257
	Al1368	Al	0.177540	-0.498796	0.135830
	Al1369	Al	0.177548	-0.249878	0.135803
	Al1370	Al	0.115084	-0.248461	0.073245
	Al1371	Al	0.115030	-0.499450	0.073235
	O1372	O	0.186842	-0.458605	0.149971
	O1373	O	0.178412	-0.374461	0.126366
	O1374	O	0.177024	-0.124363	0.145319
	O1375	O	0.230764	-0.458389	0.184594
	O1376	O	0.166976	-0.458141	0.148817
	O1377	O	0.124571	-0.458373	0.193594
	O1378	O	0.166960	-0.290172	0.148699
	O1379	O	0.168204	-0.208515	0.122137
	O1380	O	0.124385	-0.208351	0.087386
	O1381	O	0.186851	-0.290394	0.149955
	O1382	O	0.189008	-0.208895	0.124596
	O1383	O	0.238185	-0.209781	0.134978
	O1384	O	0.124515	-0.290137	0.193585
	O1385	O	0.168230	-0.040401	0.122078
	O1386	O	0.124385	-0.040370	0.087417
	O1387	O	0.238230	-0.041560	0.135139
	O1388	O	0.189063	-0.040485	0.124527
	O1389	O	0.230647	-0.290161	0.184714
	O1390	O	0.114558	-0.124404	0.198923
	O1391	O	0.248799	-0.375115	0.134427
	C1392	C	0.213048	-0.284696	0.170983
	C1393	C	0.217547	-0.374394	0.174398
	C1394	C	0.212974	-0.464006	0.171154
	C1395	C	0.204186	-0.463930	0.164529
	C1396	C	0.199708	-0.374370	0.161000
	C1397	C	0.204251	-0.284624	0.164347
	C1398	C	0.190435	-0.374488	0.153090
	C1399	C	0.226996	-0.374382	0.181814
	C1400	C	0.163329	-0.374220	0.152338
	C1401	C	0.154161	-0.373999	0.161849
	C1402	C	0.149808	-0.284917	0.166302
	C1403	C	0.141355	-0.284831	0.175192
	C1404	C	0.137069	-0.373823	0.179833
	C1405	C	0.141394	-0.462952	0.175304
	C1406	C	0.149831	-0.462924	0.166419
	C1407	C	0.128060	-0.374285	0.189752
	C1408	C	0.164527	-0.124434	0.119256
	C1409	C	0.155092	-0.124369	0.111826
	C1410	C	0.150565	-0.034821	0.108493
	C1411	C	0.141762	-0.034718	0.101920
	C1412	C	0.137260	-0.124309	0.098475
	C1413	C	0.141734	-0.213824	0.102007
	C1414	C	0.150518	-0.213890	0.108615
	C1415	C	0.127986	-0.124472	0.090550
	C1416	C	0.193235	-0.124761	0.125143
	C1417	C	0.203831	-0.125015	0.126985
	C1418	C	0.208796	-0.214981	0.128414
	C1419	C	0.218438	-0.215237	0.131367
	C1420	C	0.223407	-0.125319	0.132892
	C1421	C	0.218464	-0.035181	0.131448
	C1422	C	0.208821	-0.034922	0.128515
	C1423	C	0.233999	-0.125623	0.134524
	H1424	H	0.222172	-0.285475	0.132398
	H1425	H	0.205060	-0.284982	0.127182
	H1426	H	0.216507	-0.215195	0.173400
	H1427	H	0.200938	-0.214635	0.161666
	H1428	H	0.179856	-0.374125	0.116188
	H1429	H	0.176516	-0.124296	0.155665
	H1430	H	0.114465	-0.124929	0.188635
	H1431	H	0.247307	-0.375569	0.144633
	H1432	H	0.153868	-0.283699	0.111264
	H1433	H	0.138318	-0.283649	0.099516
	H1434	H	0.138052	-0.216074	0.178679
	H1435	H	0.153020	-0.216232	0.162688
	H1436	H	0.138397	0.035056	0.099385
	H1437	H	0.153969	0.034764	0.111089
	H1438	H	0.153074	-0.531791	0.162923
	H1439	H	0.138149	-0.532008	0.178836
	H1440	H	0.200787	-0.533769	0.161976
	H1441	H	0.216353	-0.533709	0.173682
	H1442	H	0.205099	0.034942	0.127358
	H1443	H	0.222249	0.034836	0.132558
	Al1444	Al	0.177578	0.001261	0.135703
	Al1445	Al	0.177553	0.250245	0.135725
	Al1446	Al	0.115071	0.251342	0.073219
	Al1447	Al	0.115070	0.000303	0.073265
	O1448	O	0.186872	0.041911	0.149833
	O1449	O	0.178470	0.125836	0.126221
	O1450	O	0.177043	0.375503	0.145296
	O1451	O	0.230604	0.041704	0.184823
	O1452	O	0.166981	0.041583	0.148618
	O1453	O	0.124568	0.041155	0.193651
	O1454	O	0.166980	0.209560	0.148676
	O1455	O	0.168123	0.291428	0.122196
	O1456	O	0.124348	0.291883	0.087347
	O1457	O	0.186887	0.209882	0.149756
	O1458	O	0.189014	0.291504	0.124495
	O1459	O	0.238184	0.290306	0.135022
	O1460	O	0.124580	0.209298	0.193636
	O1461	O	0.168123	0.459728	0.122253
	O1462	O	0.124343	0.460088	0.087383
	O1463	O	0.238265	0.458595	0.135134
	O1464	O	0.189022	0.460026	0.124595
	O1465	O	0.230607	0.209615	0.184859
	O1466	O	0.114672	0.375487	0.198922
	O1467	O	0.248744	0.124834	0.134485
	C1468	C	0.212961	0.215338	0.171103
	C1469	C	0.217509	0.125699	0.174498
	C1470	C	0.212932	0.036131	0.171159
	C1471	C	0.204175	0.036104	0.164476
	C1472	C	0.199682	0.125847	0.160940
	C1473	C	0.204210	0.215381	0.164423
	C1474	C	0.190493	0.125729	0.152978
	C1475	C	0.226878	0.125775	0.181979
	C1476	C	0.163360	0.125529	0.152304
	C1477	C	0.154213	0.125270	0.161815
	C1478	C	0.149828	0.214064	0.166291
	C1479	C	0.141395	0.213877	0.175241
	C1480	C	0.137114	0.125013	0.179930
	C1481	C	0.141454	0.036159	0.175334
	C1482	C	0.149879	0.036273	0.166369
	C1483	C	0.128138	0.125262	0.189864
	C1484	C	0.164418	0.375648	0.119341
	C1485	C	0.155026	0.375465	0.111869
	C1486	C	0.150530	0.465155	0.108460
	C1487	C	0.141738	0.465160	0.101840
	C1488	C	0.137197	0.375643	0.098424
	C1489	C	0.141694	0.285761	0.101892
	C1490	C	0.150486	0.285745	0.108517
	C1491	C	0.127954	0.375901	0.090471
	C1492	C	0.193223	0.375735	0.125148
	C1493	C	0.203806	0.375828	0.127007
	C1494	C	0.208729	0.285648	0.128409
	C1495	C	0.218409	0.285197	0.131318
	C1496	C	0.223398	0.374925	0.132892
	C1497	C	0.218455	0.465122	0.131565
	C1498	C	0.208781	0.465589	0.128643
	C1499	C	0.234018	0.374666	0.134525
	H1500	H	0.222086	0.214859	0.132402
	H1501	H	0.205003	0.215781	0.127229
	H1502	H	0.216375	0.285120	0.173661
	H1503	H	0.200821	0.285241	0.161765
	H1504	H	0.180052	0.125896	0.116155
	H1505	H	0.176223	0.375428	0.155572
	H1506	H	0.114632	0.375167	0.188677
	H1507	H	0.247042	0.124698	0.144489
	H1508	H	0.153884	0.216130	0.111089
	H1509	H	0.138316	0.215940	0.099242
	H1510	H	0.138159	0.282598	0.178744
	H1511	H	0.153086	0.282915	0.162736
	H1512	H	0.138404	0.535203	0.099183
	H1513	H	0.153950	0.534757	0.110994
	H1514	H	0.153150	-0.032577	0.162875
	H1515	H	0.138209	-0.032366	0.178934
	H1516	H	0.200766	-0.033751	0.161900
	H1517	H	0.216341	-0.033670	0.173774
	H1518	H	0.205071	0.536018	0.127675
	H1519	H	0.222181	0.535116	0.132817
	Al1520	Al	0.177285	-0.499329	0.270872
	Al1521	Al	0.177278	-0.249278	0.270850
	Al1522	Al	0.114793	-0.249696	0.208335
	Al1523	Al	0.114820	-0.499354	0.208296
	O1524	O	0.187412	-0.458848	0.283111
	O1525	O	0.177100	-0.374354	0.261518
	O1526	O	0.177477	-0.124534	0.280239
	O1527	O	0.229708	-0.458698	0.320930
	O1528	O	0.167789	-0.458922	0.285924
	O1529	O	0.128819	-0.458842	0.338226
	O1530	O	0.167778	-0.290764	0.285816
	O1531	O	0.167272	-0.208377	0.258464
	O1532	O	0.124929	-0.208661	0.220538
	O1533	O	0.187320	-0.290463	0.283189
	O1534	O	0.187046	-0.209137	0.256199
	O1535	O	0.229471	-0.208576	0.211249
	O1536	O	0.128829	-0.290577	0.338251
	O1537	O	0.167242	-0.040040	0.258508
	O1538	O	0.124892	-0.040396	0.220669
	O1539	O	0.229445	-0.040647	0.211252
	O1540	O	0.187006	-0.041119	0.256064
	O1541	O	0.229747	-0.290433	0.320923
	O1542	O	0.119283	-0.124513	0.344250
	O1543	O	0.239514	-0.374481	0.207842
	C1544	C	0.212819	-0.284975	0.305680
	C1545	C	0.217111	-0.374260	0.309526
	C1546	C	0.212752	-0.463503	0.305731
	C1547	C	0.204313	-0.463535	0.298228
	C1548	C	0.200021	-0.374152	0.294380
	C1549	C	0.204375	-0.285004	0.298159
	C1550	C	0.190938	-0.374654	0.286217
	C1551	C	0.226172	-0.374585	0.317788
	C1552	C	0.164501	-0.374780	0.290164
	C1553	C	0.156129	-0.374978	0.301411
	C1554	C	0.152141	-0.285799	0.306710
	C1555	C	0.144402	-0.285723	0.317142
	C1556	C	0.140449	-0.374773	0.322567
	C1557	C	0.144459	-0.464143	0.317318
	C1558	C	0.152196	-0.464207	0.306884
	C1559	C	0.132093	-0.374636	0.333851
	C1560	C	0.163697	-0.124269	0.255338
	C1561	C	0.154693	-0.124419	0.247002
	C1562	C	0.150368	-0.035529	0.243194
	C1563	C	0.141935	-0.035566	0.235641
	C1564	C	0.137614	-0.124562	0.231814
	C1565	C	0.141939	-0.213691	0.235620
	C1566	C	0.150381	-0.213585	0.243177
	C1567	C	0.128502	-0.124623	0.223674
	C1568	C	0.190577	-0.125112	0.252320
	C1569	C	0.199543	-0.124927	0.242361
	C1570	C	0.203925	-0.213569	0.237930
	C1571	C	0.212356	-0.213506	0.228979
	C1572	C	0.216647	-0.124713	0.224368
	C1573	C	0.212253	-0.035887	0.228751
	C1574	C	0.203813	-0.036001	0.237669
	C1575	C	0.225841	-0.124783	0.214887
	H1576	H	0.215687	-0.282286	0.225614
	H1577	H	0.200721	-0.282518	0.241560
	H1578	H	0.216131	-0.216346	0.308651
	H1579	H	0.201082	-0.216005	0.295208
	H1580	H	0.177091	-0.374751	0.251197
	H1581	H	0.177653	-0.124769	0.290560
	H1582	H	0.119176	-0.124551	0.333980
	H1583	H	0.239061	-0.374246	0.218173
	H1584	H	0.153653	-0.282223	0.246139
	H1585	H	0.138645	-0.282604	0.232710
	H1586	H	0.141364	-0.216294	0.321145
	H1587	H	0.155116	-0.216656	0.302575
	H1588	H	0.138653	0.033284	0.232725
	H1589	H	0.153619	0.033445	0.246217
	H1590	H	0.155232	-0.533217	0.302886
	H1591	H	0.141489	-0.533370	0.321440
	H1592	H	0.201012	-0.532479	0.295305
	H1593	H	0.216020	-0.532726	0.308685
	H1594	H	0.200559	0.032791	0.241144
	H1595	H	0.215468	0.032889	0.225204
	Al1596	Al	0.177337	0.000505	0.270822
	Al1597	Al	0.177325	0.250390	0.270800
	Al1598	Al	0.114811	0.250259	0.208309
	Al1599	Al	0.114799	0.000469	0.208298
	O1600	O	0.187434	0.041339	0.283067
	O1601	O	0.177209	0.125556	0.261398
	O1602	O	0.177575	0.375283	0.280177
	O1603	O	0.229788	0.041274	0.320992
	O1604	O	0.167810	0.041480	0.285821
	O1605	O	0.128867	0.041744	0.338211
	O1606	O	0.167840	0.209350	0.285852
	O1607	O	0.167255	0.290864	0.258502
	O1608	O	0.124945	0.291401	0.220565
	O1609	O	0.187415	0.209408	0.283114
	O1610	O	0.187043	0.291607	0.256090
	O1611	O	0.229449	0.291652	0.211430
	O1612	O	0.128869	0.209714	0.338243
	O1613	O	0.167268	0.459115	0.258520
	O1614	O	0.124979	0.459561	0.220499
	O1615	O	0.229434	0.459746	0.211224
	O1616	O	0.187025	0.459852	0.256130
	O1617	O	0.229775	0.209390	0.320966
	O1618	O	0.119179	0.375512	0.344247
	O1619	O	0.239586	0.125167	0.207967
	C1620	C	0.212812	0.214290	0.305822
	C1621	C	0.217136	0.125263	0.309658
	C1622	C	0.212821	0.036140	0.305800
	C1623	C	0.204373	0.035903	0.298262
	C1624	C	0.200039	0.125102	0.294488
	C1625	C	0.204370	0.214177	0.298310
	C1626	C	0.190974	0.125228	0.286235
	C1627	C	0.226192	0.125189	0.317898
	C1628	C	0.164549	0.125612	0.290186
	C1629	C	0.156170	0.125387	0.301457
	C1630	C	0.152177	0.214557	0.306752
	C1631	C	0.144422	0.214445	0.317166
	C1632	C	0.140485	0.125482	0.322579
	C1633	C	0.144444	0.036405	0.317232
	C1634	C	0.152193	0.036481	0.306803
	C1635	C	0.132162	0.125729	0.333906
	C1636	C	0.163688	0.375026	0.255337
	C1637	C	0.154637	0.375046	0.247116
	C1638	C	0.150351	0.464078	0.243181
	C1639	C	0.141933	0.464388	0.235608
	C1640	C	0.137610	0.375187	0.231817
	C1641	C	0.141913	0.285880	0.235665
	C1642	C	0.150324	0.285948	0.243266
	C1643	C	0.128541	0.375538	0.223596
	C1644	C	0.190566	0.375861	0.252269
	C1645	C	0.199580	0.376137	0.242413
	C1646	C	0.203883	0.287221	0.237792
	C1647	C	0.212335	0.286995	0.228922
	C1648	C	0.216672	0.376058	0.224426
	C1649	C	0.212347	0.465088	0.228960
	C1650	C	0.203888	0.465313	0.237850
	C1651	C	0.225826	0.375722	0.214923
	H1652	H	0.215557	0.218017	0.225335
	H1653	H	0.200616	0.218349	0.241275
	H1654	H	0.216080	0.283292	0.308766
	H1655	H	0.201080	0.283062	0.295360
	H1656	H	0.177163	0.124865	0.251123
	H1657	H	0.177889	0.375078	0.290435
	H1658	H	0.118940	0.375515	0.334020
	H1659	H	0.239316	0.125059	0.218302
	H1660	H	0.153608	0.216982	0.246172
	H1661	H	0.138641	0.216956	0.232644
	H1662	H	0.141438	0.283644	0.321238
	H1663	H	0.155166	0.283633	0.302678
	H1664	H	0.138687	0.533783	0.232541
	H1665	H	0.153664	0.533083	0.246040
	H1666	H	0.155192	-0.032747	0.302767
	H1667	H	0.141478	-0.032713	0.321397
	H1668	H	0.201087	-0.032988	0.295281
	H1669	H	0.216116	-0.032763	0.308695
	H1670	H	0.200641	0.534381	0.241387
	H1671	H	0.215600	0.534101	0.225339
	Al1672	Al	0.182030	-0.500072	0.416094
	Al1673	Al	0.182065	-0.249821	0.416091
	Al1674	Al	0.119546	-0.249673	0.353618
	Al1675	Al	0.119483	-0.499506	0.353551
	O1676	O	0.192221	-0.458867	0.428158
	O1677	O	0.181724	-0.374720	0.406793
	O1678	O	0.182381	-0.125035	0.425458
	O1679	O	0.234298	-0.459106	0.466563
	O1680	O	0.172708	-0.458773	0.431458
	O1681	O	0.134256	-0.458639	0.484717
	O1682	O	0.172724	-0.290750	0.431477
	O1683	O	0.171855	-0.209216	0.404054
	O1684	O	0.129764	-0.208837	0.365601
	O1685	O	0.192314	-0.290531	0.428054
	O1686	O	0.191373	-0.208863	0.400696
	O1687	O	0.230256	-0.208500	0.348301
	O1688	O	0.134302	-0.290592	0.484726
	O1689	O	0.171814	-0.041272	0.404115
	O1690	O	0.129787	-0.040442	0.365632
	O1691	O	0.230320	-0.040617	0.348307
	O1692	O	0.191351	-0.041060	0.400773
	O1693	O	0.234333	-0.290707	0.466599
	O1694	O	0.124602	-0.124901	0.490824
	O1695	O	0.239973	-0.374604	0.342692
	C1696	C	0.217552	-0.285851	0.451029
	C1697	C	0.221798	-0.375061	0.455025
	C1698	C	0.217485	-0.464368	0.451192
	C1699	C	0.209090	-0.464220	0.443582
	C1700	C	0.204839	-0.375001	0.439580
	C1701	C	0.209152	-0.285838	0.443396
	C1702	C	0.195802	-0.374788	0.431267
	C1703	C	0.230786	-0.375060	0.463390
	C1704	C	0.169431	-0.374671	0.435826
	C1705	C	0.161208	-0.374702	0.447303
	C1706	C	0.157312	-0.285597	0.452773
	C1707	C	0.149670	-0.285602	0.463423
	C1708	C	0.145707	-0.374613	0.468745
	C1709	C	0.149636	-0.463682	0.463334
	C1710	C	0.157284	-0.463703	0.452698
	C1711	C	0.137520	-0.374793	0.480301
	C1712	C	0.168285	-0.125141	0.400894
	C1713	C	0.159286	-0.125255	0.392552
	C1714	C	0.154996	-0.035913	0.388685
	C1715	C	0.146612	-0.035535	0.380991
	C1716	C	0.142329	-0.124715	0.377034
	C1717	C	0.146608	-0.214109	0.380901
	C1718	C	0.154988	-0.214294	0.388613
	C1719	C	0.133332	-0.124693	0.368754
	C1720	C	0.194660	-0.124881	0.396369
	C1721	C	0.202996	-0.124202	0.385083
	C1722	C	0.206910	-0.212961	0.379665
	C1723	C	0.214655	-0.213091	0.369216
	C1724	C	0.218668	-0.124176	0.363952
	C1725	C	0.214715	-0.035369	0.369307
	C1726	C	0.206960	-0.035362	0.379746
	C1727	C	0.227024	-0.124506	0.352696
	H1728	H	0.217587	-0.282165	0.365088
	H1729	H	0.203898	-0.281983	0.383683
	H1730	H	0.220812	-0.217143	0.454019
	H1731	H	0.205932	-0.216827	0.440257
	H1732	H	0.181412	-0.374975	0.396547
	H1733	H	0.182743	-0.124437	0.435677
	H1734	H	0.124190	-0.125088	0.480567
	H1735	H	0.240345	-0.374802	0.352897
	H1736	H	0.158232	-0.283459	0.391591
	H1737	H	0.143351	-0.283361	0.377891
	H1738	H	0.146750	-0.216789	0.467649
	H1739	H	0.160284	-0.216513	0.448718
	H1740	H	0.143356	0.033554	0.377994
	H1741	H	0.158235	0.033031	0.391762
	H1742	H	0.160192	-0.532880	0.448568
	H1743	H	0.146694	-0.533258	0.467487
	H1744	H	0.205851	-0.533094	0.440527
	H1745	H	0.220674	-0.533326	0.454370
	H1746	H	0.204010	0.033775	0.383855
	H1747	H	0.217724	0.033528	0.365288
	Al1748	Al	0.182033	-0.000113	0.416115
	Al1749	Al	0.181979	0.250287	0.416036
	Al1750	Al	0.119515	0.250347	0.353573
	Al1751	Al	0.119550	0.000465	0.353609
	O1752	O	0.192180	0.041140	0.428172
	O1753	O	0.181620	0.124960	0.406742
	O1754	O	0.182369	0.374838	0.425421
	O1755	O	0.234331	0.041342	0.466573
	O1756	O	0.172683	0.041315	0.431399
	O1757	O	0.134262	0.041100	0.484740
	O1758	O	0.172662	0.209408	0.431444
	O1759	O	0.171762	0.291184	0.404040
	O1760	O	0.129696	0.291336	0.365593
	O1761	O	0.192173	0.209384	0.428147
	O1762	O	0.191307	0.291001	0.400714
	O1763	O	0.230239	0.291152	0.348317
	O1764	O	0.134283	0.208995	0.484732
	O1765	O	0.171790	0.459242	0.404101
	O1766	O	0.129710	0.459576	0.365606
	O1767	O	0.230278	0.459431	0.348377
	O1768	O	0.191378	0.459165	0.400818
	O1769	O	0.234295	0.209761	0.466553
	O1770	O	0.124654	0.375122	0.490871
	O1771	O	0.239994	0.125533	0.342682
	C1772	C	0.217507	0.214463	0.451054
	C1773	C	0.221792	0.125188	0.454985
	C1774	C	0.217458	0.035857	0.451244
	C1775	C	0.209064	0.035815	0.443569
	C1776	C	0.204812	0.125052	0.439524
	C1777	C	0.209123	0.214240	0.443379
	C1778	C	0.195758	0.125333	0.431246
	C1779	C	0.230791	0.125505	0.463374
	C1780	C	0.169415	0.125211	0.435791
	C1781	C	0.161222	0.124885	0.447337
	C1782	C	0.157307	0.213903	0.452800
	C1783	C	0.149673	0.213736	0.463384
	C1784	C	0.145734	0.124669	0.468806
	C1785	C	0.149659	0.035627	0.463359
	C1786	C	0.157292	0.035670	0.452751
	C1787	C	0.137526	0.125086	0.480307
	C1788	C	0.168222	0.375190	0.400892
	C1789	C	0.159231	0.375326	0.392533
	C1790	C	0.154971	0.464572	0.388614
	C1791	C	0.146584	0.464566	0.380918
	C1792	C	0.142278	0.375289	0.377050
	C1793	C	0.146565	0.286158	0.380938
	C1794	C	0.154947	0.286017	0.388628
	C1795	C	0.133250	0.375556	0.368747
	C1796	C	0.194604	0.375146	0.396353
	C1797	C	0.202955	0.374983	0.385052
	C1798	C	0.206888	0.285982	0.379669
	C1799	C	0.214620	0.285910	0.369232
	C1800	C	0.218598	0.375182	0.363915
	C1801	C	0.214713	0.464134	0.369378
	C1802	C	0.206986	0.464127	0.379833
	C1803	C	0.226957	0.375207	0.352672
	H1804	H	0.217590	0.216945	0.365135
	H1805	H	0.203858	0.216724	0.383666
	H1806	H	0.220779	0.283615	0.454002
	H1807	H	0.205880	0.283210	0.440358
	H1808	H	0.181284	0.124487	0.396496
	H1809	H	0.182761	0.375134	0.435638
	H1810	H	0.124278	0.374985	0.480621
	H1811	H	0.240208	0.125632	0.352978
	H1812	H	0.158204	0.216930	0.391679
	H1813	H	0.143322	0.217160	0.377911
	H1814	H	0.146749	0.283069	0.467572
	H1815	H	0.160198	0.282894	0.448546
	H1816	H	0.143334	0.533413	0.377863
	H1817	H	0.158202	0.533453	0.391642
	H1818	H	0.160204	-0.033211	0.448494
	H1819	H	0.146714	-0.033440	0.467527
	H1820	H	0.205761	-0.033037	0.440676
	H1821	H	0.220724	-0.032873	0.454366
	H1822	H	0.204011	0.533101	0.383933
	H1823	H	0.217744	0.533214	0.365441
	Al1824	Al	0.187514	-0.499923	0.562632
	Al1825	Al	0.187510	-0.249951	0.562660
	Al1826	Al	0.125031	-0.250390	0.500123
	Al1827	Al	0.125007	-0.500097	0.500164
	O1828	O	0.197706	-0.459366	0.574654
	O1829	O	0.187154	-0.374869	0.553324
	O1830	O	0.187823	-0.125116	0.571932
	O1831	O	0.239741	-0.459077	0.613150
	O1832	O	0.178175	-0.459556	0.578002
	O1833	O	0.139758	-0.459337	0.631248
	O1834	O	0.178203	-0.291145	0.578075
	O1835	O	0.177227	-0.209606	0.550705
	O1836	O	0.135247	-0.209035	0.512116
	O1837	O	0.197727	-0.291094	0.574603
	O1838	O	0.196799	-0.209320	0.547197
	O1839	O	0.235238	-0.208584	0.493998
	O1840	O	0.139772	-0.291034	0.631261
	O1841	O	0.177318	-0.041263	0.550542
	O1842	O	0.135248	-0.040840	0.512021
	O1843	O	0.235199	-0.040487	0.493922
	O1844	O	0.196782	-0.041098	0.547275
	O1845	O	0.239790	-0.290927	0.613096
	O1846	O	0.130158	-0.125442	0.637297
	O1847	O	0.244863	-0.374837	0.487905
	C1848	C	0.222970	-0.286203	0.597632
	C1849	C	0.227237	-0.375275	0.601582
	C1850	C	0.222958	-0.464454	0.597689
	C1851	C	0.214584	-0.464268	0.589996
	C1852	C	0.210290	-0.375227	0.586080
	C1853	C	0.214590	-0.286304	0.589943
	C1854	C	0.201277	-0.375329	0.577770
	C1855	C	0.236226	-0.375069	0.609945
	C1856	C	0.174956	-0.375367	0.582431
	C1857	C	0.166712	-0.375196	0.593942
	C1858	C	0.162825	-0.285807	0.599347
	C1859	C	0.155175	-0.285671	0.609966
	C1860	C	0.151261	-0.375044	0.615383
	C1861	C	0.155165	-0.464363	0.609995
	C1862	C	0.162823	-0.464569	0.599377
	C1863	C	0.143014	-0.375250	0.626878
	C1864	C	0.173720	-0.125474	0.547498
	C1865	C	0.164720	-0.125129	0.539151
	C1866	C	0.160478	-0.035735	0.535211
	C1867	C	0.152111	-0.035508	0.527470
	C1868	C	0.147770	-0.124782	0.523651
	C1869	C	0.152017	-0.214055	0.527604
	C1870	C	0.160384	-0.214386	0.535345
	C1871	C	0.138794	-0.124835	0.515227
	C1872	C	0.200042	-0.125019	0.542833
	C1873	C	0.208240	-0.124865	0.531324
	C1874	C	0.212168	-0.213675	0.525898
	C1875	C	0.219799	-0.213574	0.515261
	C1876	C	0.223742	-0.124660	0.509857
	C1877	C	0.219797	-0.035879	0.515245
	C1878	C	0.212150	-0.035945	0.525888
	C1879	C	0.231946	-0.124512	0.498328
	H1880	H	0.222712	-0.282365	0.511037
	H1881	H	0.209217	-0.282662	0.530017
	H1882	H	0.226234	-0.217269	0.600573
	H1883	H	0.211361	-0.217316	0.586926
	H1884	H	0.186752	-0.374999	0.543127
	H1885	H	0.188219	-0.125477	0.582173
	H1886	H	0.129834	-0.125405	0.627087
	H1887	H	0.245425	-0.375391	0.498099
	H1888	H	0.163604	-0.283449	0.538403
	H1889	H	0.148739	-0.282841	0.524604
	H1890	H	0.152256	-0.216424	0.614065
	H1891	H	0.165775	-0.216528	0.595193
	H1892	H	0.148905	0.033312	0.524396
	H1893	H	0.163755	0.033239	0.538180
	H1894	H	0.165781	-0.534078	0.595321
	H1895	H	0.152213	-0.533615	0.614215
	H1896	H	0.211324	-0.533269	0.586947
	H1897	H	0.226218	-0.533146	0.600734
	H1898	H	0.209199	0.032975	0.530011
	H1899	H	0.222712	0.032880	0.511065
	Al1900	Al	0.187481	-0.000065	0.562600
	Al1901	Al	0.187473	0.250166	0.562633
	Al1902	Al	0.125045	0.249870	0.500186
	Al1903	Al	0.125005	0.000098	0.500138
	O1904	O	0.197741	0.040792	0.574589
	O1905	O	0.187124	0.124969	0.553274
	O1906	O	0.187818	0.375012	0.571930
	O1907	O	0.239792	0.041081	0.613136
	O1908	O	0.178199	0.040797	0.578033
	O1909	O	0.139770	0.040833	0.631290
	O1910	O	0.178216	0.209046	0.578036
	O1911	O	0.177309	0.291129	0.550537
	O1912	O	0.135256	0.291004	0.512128
	O1913	O	0.197710	0.208835	0.574567
	O1914	O	0.196832	0.290864	0.547308
	O1915	O	0.235217	0.291128	0.493902
	O1916	O	0.139729	0.208976	0.631283
	O1917	O	0.177281	0.459211	0.550679
	O1918	O	0.135232	0.459113	0.512174
	O1919	O	0.235220	0.459179	0.493942
	O1920	O	0.196804	0.458981	0.547224
	O1921	O	0.239767	0.209418	0.613126
	O1922	O	0.130094	0.374586	0.637299
	O1923	O	0.244851	0.125300	0.487934
	C1924	C	0.222983	0.214136	0.597645
	C1925	C	0.227232	0.125021	0.601649
	C1926	C	0.222956	0.035762	0.597715
	C1927	C	0.214581	0.035607	0.589992
	C1928	C	0.210285	0.124858	0.586084
	C1929	C	0.214610	0.214005	0.589932
	C1930	C	0.201275	0.124792	0.577736
	C1931	C	0.236228	0.125120	0.609972
	C1932	C	0.174950	0.124910	0.582485
	C1933	C	0.166752	0.124900	0.594019
	C1934	C	0.162830	0.214055	0.599420
	C1935	C	0.155180	0.214084	0.610012
	C1936	C	0.151259	0.124875	0.615448
	C1937	C	0.155161	0.035599	0.609996
	C1938	C	0.162808	0.035698	0.599407
	C1939	C	0.143010	0.124919	0.626899
	C1940	C	0.173737	0.375241	0.547472
	C1941	C	0.164723	0.375078	0.539162
	C1942	C	0.160417	0.464018	0.535299
	C1943	C	0.152040	0.464316	0.527590
	C1944	C	0.147771	0.375203	0.523694
	C1945	C	0.152070	0.286285	0.527572
	C1946	C	0.160443	0.285958	0.535275
	C1947	C	0.138780	0.375161	0.515303
	C1948	C	0.200060	0.374786	0.542851
	C1949	C	0.208282	0.374697	0.531329
	C1950	C	0.212213	0.285694	0.525880
	C1951	C	0.219827	0.286052	0.515219
	C1952	C	0.223734	0.375110	0.509815
	C1953	C	0.219817	0.464143	0.515262
	C1954	C	0.212196	0.463742	0.525909
	C1955	C	0.231954	0.375257	0.498307
	H1956	H	0.222754	0.217146	0.510999
	H1957	H	0.209269	0.216519	0.530007
	H1958	H	0.226254	0.282886	0.600604
	H1959	H	0.211410	0.283022	0.586809
	H1960	H	0.186845	0.124891	0.543038
	H1961	H	0.188221	0.374584	0.582178
	H1962	H	0.129620	0.374773	0.627055
	H1963	H	0.245281	0.124881	0.498168
	H1964	H	0.163725	0.216939	0.538274
	H1965	H	0.148811	0.217682	0.524564
	H1966	H	0.152162	0.283083	0.614078
	H1967	H	0.165777	0.283246	0.595273
	H1968	H	0.148786	0.533259	0.524608
	H1969	H	0.163663	0.532950	0.538318
	H1970	H	0.165761	-0.033245	0.595237
	H1971	H	0.152179	-0.033610	0.614077
	H1972	H	0.211326	-0.033421	0.586895
	H1973	H	0.226184	-0.033344	0.600729
	H1974	H	0.209251	0.532791	0.530099
	H1975	H	0.222755	0.533461	0.511107
	Al1976	Al	0.193008	-0.500097	0.709084
	Al1977	Al	0.192967	-0.250282	0.709076
	Al1978	Al	0.130449	-0.250421	0.646615
	Al1979	Al	0.130484	-0.500485	0.646618
	O1980	O	0.203168	-0.459019	0.721169
	O1981	O	0.192606	-0.375330	0.699762
	O1982	O	0.193305	-0.125342	0.718421
	O1983	O	0.245265	-0.459717	0.759623
	O1984	O	0.183634	-0.459577	0.724383
	O1985	O	0.144713	-0.459950	0.776685
	O1986	O	0.183665	-0.291521	0.724414
	O1987	O	0.182765	-0.209315	0.697138
	O1988	O	0.140668	-0.209486	0.658611
	O1989	O	0.203214	-0.291119	0.721055
	O1990	O	0.202264	-0.209677	0.693729
	O1991	O	0.240720	-0.209359	0.640459
	O1992	O	0.144678	-0.291945	0.776756
	O1993	O	0.182752	-0.041338	0.697085
	O1994	O	0.140694	-0.041213	0.658625
	O1995	O	0.240710	-0.041184	0.640521
	O1996	O	0.202313	-0.041425	0.693853
	O1997	O	0.245358	-0.291431	0.759460
	O1998	O	0.135043	-0.125656	0.782338
	O1999	O	0.250399	-0.375147	0.634410
	C2000	C	0.228446	-0.286147	0.744192
	C2001	C	0.232746	-0.375234	0.748056
	C2002	C	0.228419	-0.464277	0.744210
	C2003	C	0.220035	-0.464095	0.736536
	C2004	C	0.215750	-0.375106	0.732655
	C2005	C	0.220051	-0.285999	0.736531
	C2006	C	0.206753	-0.375028	0.724263
	C2007	C	0.241746	-0.375581	0.756404
	C2008	C	0.180366	-0.375559	0.728749
	C2009	C	0.172039	-0.375538	0.740050
	C2010	C	0.168066	-0.286400	0.745328
	C2011	C	0.160299	-0.286350	0.755755
	C2012	C	0.156346	-0.375400	0.761114
	C2013	C	0.160293	-0.464549	0.755775
	C2014	C	0.168042	-0.464491	0.745332
	C2015	C	0.148006	-0.375713	0.772412
	C2016	C	0.179215	-0.125201	0.693922
	C2017	C	0.170212	-0.125460	0.685584
	C2018	C	0.165947	-0.036381	0.681560
	C2019	C	0.157563	-0.036570	0.673889
	C2020	C	0.153257	-0.125634	0.670072
	C2021	C	0.157492	-0.214623	0.674162
	C2022	C	0.165874	-0.214408	0.681827
	C2023	C	0.144232	-0.125496	0.661784
	C2024	C	0.205531	-0.125562	0.689358
	C2025	C	0.213774	-0.125511	0.677944
	C2026	C	0.217684	-0.214700	0.672482
	C2027	C	0.225302	-0.214891	0.661847
	C2028	C	0.229233	-0.125526	0.656403
	C2029	C	0.225319	-0.036348	0.661844
	C2030	C	0.217692	-0.036393	0.672489
	C2031	C	0.237449	-0.125398	0.644877
	H2032	H	0.228247	-0.283926	0.657652
	H2033	H	0.214718	-0.283922	0.676591
	H2034	H	0.231693	-0.217377	0.747229
	H2035	H	0.216822	-0.216967	0.733473
	H2036	H	0.192290	-0.375515	0.689539
	H2037	H	0.193684	-0.125413	0.728644
	H2038	H	0.134750	-0.125798	0.772046
	H2039	H	0.250854	-0.375001	0.644666
	H2040	H	0.169074	-0.283214	0.684971
	H2041	H	0.154176	-0.283485	0.671328
	H2042	H	0.157314	-0.217228	0.759816
	H2043	H	0.171053	-0.217362	0.741290
	H2044	H	0.154310	0.032118	0.670804
	H2045	H	0.169236	0.032517	0.684457
	H2046	H	0.171000	-0.533411	0.741214
	H2047	H	0.157323	-0.533640	0.759804
	H2048	H	0.216800	-0.532977	0.733503
	H2049	H	0.231632	-0.533238	0.747239
	H2050	H	0.214699	0.032801	0.676622
	H2051	H	0.228239	0.032827	0.657652
	Al2052	Al	0.192989	-0.000333	0.709039
	Al2053	Al	0.192997	0.249793	0.709020
	Al2054	Al	0.130408	0.249593	0.646641
	Al2055	Al	0.130449	-0.000702	0.646614
	O2056	O	0.203181	0.040666	0.721140
	O2057	O	0.192639	0.124732	0.699685
	O2058	O	0.193345	0.374909	0.718353
	O2059	O	0.245304	0.040429	0.759526
	O2060	O	0.183691	0.040695	0.724392
	O2061	O	0.144717	0.040613	0.776739
	O2062	O	0.183654	0.208881	0.724328
	O2063	O	0.182798	0.290419	0.696988
	O2064	O	0.140623	0.290452	0.658713
	O2065	O	0.203224	0.209022	0.721047
	O2066	O	0.202281	0.290939	0.693699
	O2067	O	0.240782	0.290982	0.640535
	O2068	O	0.144684	0.208521	0.776709
	O2069	O	0.182787	0.458642	0.697075
	O2070	O	0.140662	0.458841	0.658691
	O2071	O	0.240716	0.459214	0.640470
	O2072	O	0.202367	0.459156	0.693806
	O2073	O	0.245273	0.208859	0.759590
	O2074	O	0.134980	0.374406	0.782446
	O2075	O	0.250337	0.124925	0.634402
	C2076	C	0.228430	0.213515	0.744204
	C2077	C	0.232728	0.124244	0.748061
	C2078	C	0.228412	0.035155	0.744210
	C2079	C	0.220019	0.035348	0.736561
	C2080	C	0.215738	0.124648	0.732664
	C2081	C	0.220030	0.213850	0.736564
	C2082	C	0.206740	0.124737	0.724261
	C2083	C	0.241718	0.124478	0.756465
	C2084	C	0.180389	0.124829	0.728710
	C2085	C	0.172063	0.124744	0.740002
	C2086	C	0.168074	0.213579	0.745328
	C2087	C	0.160330	0.213636	0.755763
	C2088	C	0.156377	0.124715	0.761147
	C2089	C	0.160372	0.035868	0.755825
	C2090	C	0.168119	0.035727	0.745372
	C2091	C	0.148022	0.124598	0.772390
	C2092	C	0.179231	0.374578	0.693885
	C2093	C	0.170171	0.374579	0.685688
	C2094	C	0.165925	0.463752	0.681687
	C2095	C	0.157533	0.463764	0.674044
	C2096	C	0.153203	0.374527	0.670207
	C2097	C	0.157472	0.285295	0.674160
	C2098	C	0.165872	0.285325	0.681824
	C2099	C	0.144198	0.374611	0.661874
	C2100	C	0.205582	0.375146	0.689365
	C2101	C	0.213793	0.374975	0.677835
	C2102	C	0.217684	0.285685	0.672412
	C2103	C	0.225318	0.285457	0.661791
	C2104	C	0.229250	0.374667	0.656369
	C2105	C	0.225331	0.463892	0.661770
	C2106	C	0.217707	0.464099	0.672378
	C2107	C	0.237507	0.374898	0.644910
	H2108	H	0.228269	0.216214	0.657650
	H2109	H	0.214742	0.216584	0.676620
	H2110	H	0.231669	0.282457	0.747292
	H2111	H	0.216754	0.282858	0.733613
	H2112	H	0.192277	0.124802	0.689423
	H2113	H	0.193647	0.374004	0.728560
	H2114	H	0.134550	0.374522	0.772223
	H2115	H	0.250677	0.124872	0.644606
	H2116	H	0.169159	0.216305	0.684805
	H2117	H	0.154217	0.216400	0.671148
	H2118	H	0.157337	0.282594	0.759830
	H2119	H	0.171042	0.282739	0.741222
	H2120	H	0.154321	0.532836	0.670908
	H2121	H	0.169222	0.532948	0.684554
	H2122	H	0.171118	-0.033183	0.741313
	H2123	H	0.157424	-0.033296	0.759931
	H2124	H	0.216741	-0.033648	0.733547
	H2125	H	0.231634	-0.033726	0.747300
	H2126	H	0.214795	0.533553	0.676531
	H2127	H	0.228299	0.532809	0.657630
	Al2128	Al	0.197711	-0.500899	0.854188
	Al2129	Al	0.197698	-0.250651	0.854287
	Al2130	Al	0.135173	-0.250741	0.791765
	Al2131	Al	0.135183	-0.500501	0.791823
	O2132	O	0.207745	-0.459489	0.866568
	O2133	O	0.197463	-0.375503	0.844880
	O2134	O	0.197902	-0.125743	0.863652
	O2135	O	0.250067	-0.459862	0.904503
	O2136	O	0.187938	-0.459741	0.868869
	O2137	O	0.145508	-0.459726	0.913853
	O2138	O	0.187948	-0.291595	0.868943
	O2139	O	0.187571	-0.209660	0.842016
	O2140	O	0.145207	-0.209929	0.804152
	O2141	O	0.207772	-0.291350	0.866538
	O2142	O	0.207168	-0.209650	0.839144
	O2143	O	0.246123	-0.209645	0.786941
	O2144	O	0.145509	-0.292012	0.913806
	O2145	O	0.187562	-0.041566	0.841981
	O2146	O	0.145217	-0.041706	0.804088
	O2147	O	0.246182	-0.041496	0.786977
	O2148	O	0.207172	-0.041663	0.839244
	O2149	O	0.250097	-0.291521	0.904389
	O2150	O	0.135407	-0.126224	0.917112
	O2151	O	0.255788	-0.375157	0.780956
	C2152	C	0.233136	-0.286284	0.889295
	C2153	C	0.237463	-0.375669	0.893123
	C2154	C	0.233106	-0.464864	0.889313
	C2155	C	0.224669	-0.464885	0.881763
	C2156	C	0.220381	-0.375481	0.877909
	C2157	C	0.224699	-0.286413	0.881755
	C2158	C	0.211341	-0.375421	0.869658
	C2159	C	0.246511	-0.375774	0.901349
	C2160	C	0.184395	-0.375672	0.872674
	C2161	C	0.175387	-0.376107	0.882558
	C2162	C	0.171068	-0.287331	0.887181
	C2163	C	0.162624	-0.287249	0.896117
	C2164	C	0.158281	-0.376098	0.900630
	C2165	C	0.162619	-0.464920	0.896087
	C2166	C	0.171055	-0.464841	0.887128
	C2167	C	0.149140	-0.376095	0.910173
	C2168	C	0.183999	-0.125567	0.838858
	C2169	C	0.174954	-0.125491	0.830631
	C2170	C	0.170665	-0.036307	0.826706
	C2171	C	0.162214	-0.036520	0.819190
	C2172	C	0.157864	-0.125717	0.815436
	C2173	C	0.162118	-0.214974	0.819436
	C2174	C	0.170574	-0.214767	0.826948
	C2175	C	0.148781	-0.125749	0.807268
	C2176	C	0.210480	-0.125508	0.834883
	C2177	C	0.218818	-0.125328	0.823599
	C2178	C	0.222771	-0.214294	0.818255
	C2179	C	0.230527	-0.214222	0.807873
	C2180	C	0.234530	-0.125296	0.802584
	C2181	C	0.230573	-0.036291	0.807913
	C2182	C	0.222819	-0.036401	0.818303
	C2183	C	0.242864	-0.125588	0.791310
	H2184	H	0.233495	-0.283114	0.803785
	H2185	H	0.219751	-0.283191	0.822299
	H2186	H	0.236409	-0.217370	0.892262
	H2187	H	0.221431	-0.217207	0.878792
	H2188	H	0.197096	-0.375209	0.834567
	H2189	H	0.198043	-0.125484	0.873910
	H2190	H	0.135811	-0.126683	0.906771
	H2191	H	0.255964	-0.374701	0.791203
	H2192	H	0.173790	-0.283765	0.830049
	H2193	H	0.158786	-0.284086	0.816607
	H2194	H	0.159362	-0.218263	0.899616
	H2195	H	0.174344	-0.218340	0.883722
	H2196	H	0.158955	0.032427	0.816177
	H2197	H	0.173970	0.032774	0.829621
	H2198	H	0.174298	-0.533567	0.883624
	H2199	H	0.159354	-0.533774	0.899578
	H2200	H	0.221373	-0.533923	0.878811
	H2201	H	0.236377	-0.533849	0.892281
	H2202	H	0.219838	0.032462	0.822387
	H2203	H	0.233579	0.032543	0.803865
	Al2204	Al	0.197670	-0.000951	0.854273
	Al2205	Al	0.197669	0.249351	0.854239
	Al2206	Al	0.135211	0.249191	0.791782
	Al2207	Al	0.135197	-0.000546	0.791706
	O2208	O	0.207742	0.040668	0.866571
	O2209	O	0.197451	0.124138	0.844932
	O2210	O	0.197866	0.374323	0.863585
	O2211	O	0.250079	0.040452	0.904480
	O2212	O	0.187998	0.040400	0.869043
	O2213	O	0.145497	0.040299	0.913687
	O2214	O	0.187962	0.208582	0.868961
	O2215	O	0.187578	0.290308	0.841966
	O2216	O	0.145210	0.290147	0.804184
	O2217	O	0.207770	0.208726	0.866559
	O2218	O	0.207149	0.290622	0.839170
	O2219	O	0.246146	0.290304	0.786891
	O2220	O	0.145492	0.208384	0.913748
	O2221	O	0.187632	0.458477	0.841869
	O2222	O	0.145188	0.458344	0.804259
	O2223	O	0.246201	0.458282	0.786974
	O2224	O	0.207204	0.458399	0.839143
	O2225	O	0.250111	0.208316	0.904467
	O2226	O	0.135416	0.374376	0.917163
	O2227	O	0.255797	0.124942	0.780936
	C2228	C	0.233119	0.213593	0.889389
	C2229	C	0.237438	0.124482	0.893187
	C2230	C	0.233133	0.035493	0.889307
	C2231	C	0.224689	0.035607	0.881768
	C2232	C	0.220354	0.124544	0.877986
	C2233	C	0.224684	0.213523	0.881856
	C2234	C	0.211327	0.124728	0.869696
	C2235	C	0.246507	0.124551	0.901385
	C2236	C	0.184441	0.124448	0.872798
	C2237	C	0.175434	0.124605	0.882701
	C2238	C	0.171117	0.213555	0.887270
	C2239	C	0.162670	0.213541	0.896147
	C2240	C	0.158314	0.124635	0.900647
	C2241	C	0.162640	0.035703	0.896092
	C2242	C	0.171096	0.035666	0.887198
	C2243	C	0.149119	0.124390	0.910102
	C2244	C	0.184020	0.374415	0.838808
	C2245	C	0.174944	0.374532	0.830676
	C2246	C	0.170667	0.463670	0.826736
	C2247	C	0.162202	0.463533	0.819271
	C2248	C	0.157831	0.374314	0.815604
	C2249	C	0.162137	0.285275	0.819506
	C2250	C	0.170599	0.285267	0.826967
	C2251	C	0.148767	0.374199	0.807418
	C2252	C	0.210468	0.374499	0.834842
	C2253	C	0.218829	0.374119	0.823550
	C2254	C	0.222770	0.285304	0.818178
	C2255	C	0.230522	0.285359	0.807798
	C2256	C	0.234533	0.374275	0.802540
	C2257	C	0.230604	0.463086	0.807944
	C2258	C	0.222843	0.463091	0.818301
	C2259	C	0.242884	0.374293	0.791261
	H2260	H	0.233501	0.216421	0.803676
	H2261	H	0.219751	0.216308	0.822211
	H2262	H	0.236392	0.282491	0.892372
	H2263	H	0.221434	0.282588	0.878855
	H2264	H	0.197167	0.124014	0.834666
	H2265	H	0.197842	0.374892	0.873807
	H2266	H	0.135875	0.374579	0.906817
	H2267	H	0.255970	0.125250	0.791177
	H2268	H	0.173876	0.216211	0.829975
	H2269	H	0.158842	0.216074	0.816669
	H2270	H	0.159409	0.282671	0.899623
	H2271	H	0.174353	0.282487	0.883716
	H2272	H	0.158919	0.532596	0.816239
	H2273	H	0.173953	0.532742	0.829566
	H2274	H	0.174328	-0.033333	0.883656
	H2275	H	0.159326	-0.032925	0.899510
	H2276	H	0.221419	-0.033171	0.878722
	H2277	H	0.236408	-0.033544	0.892214
	H2278	H	0.219875	0.532008	0.822448
	H2279	H	0.233667	0.531983	0.803947
	Al2280	Al	0.197425	-0.501400	0.989014
	Al2281	Al	0.197455	-0.250504	0.989109
	Al2282	Al	0.134924	-0.251313	0.926714
	Al2283	Al	0.134927	-0.500558	0.926800
	O2284	O	0.206780	-0.460005	1.002649
	O2285	O	0.197945	-0.375843	0.979476
	O2286	O	0.196537	-0.126101	0.998605
	O2287	O	0.250579	-0.460056	1.037596
	O2288	O	0.185917	-0.460497	1.000194
	O2289	O	0.136730	-0.458797	0.989876
	O2290	O	0.186006	-0.292141	1.000351
	O2291	O	0.188118	-0.210062	0.975005
	O2292	O	0.144281	-0.209905	0.940343
	O2293	O	0.206818	-0.291933	1.002658
	O2294	O	0.207987	-0.209845	0.976186
	O2295	O	0.250443	-0.210068	0.931416
	O2296	O	0.136812	-0.290668	0.989952
	O2297	O	0.188116	-0.042107	0.975042
	O2298	O	0.144308	-0.041859	0.940205
	O2299	O	0.250479	-0.041934	0.931417
	O2300	O	0.208006	-0.042147	0.976222
	O2301	O	0.250681	-0.291907	1.037349
	O2302	O	0.126182	-0.125016	0.990412
	O2303	O	0.260308	-0.375569	0.926065
	C2304	C	0.233278	-0.286245	1.022877
	C2305	C	0.237731	-0.375888	1.026508
	C2306	C	0.233203	-0.465451	1.023057
	C2307	C	0.224411	-0.465573	1.016453
	C2308	C	0.219891	-0.375998	1.013083
	C2309	C	0.224483	-0.286344	1.016288
	C2310	C	0.210495	-0.376046	1.005532
	C2311	C	0.247017	-0.376082	1.034398
	C2312	C	0.181759	-0.376013	0.999666
	C2313	C	0.171165	-0.375760	0.997879
	C2314	C	0.166241	-0.285710	0.996382
	C2315	C	0.156578	-0.285484	0.993467
	C2316	C	0.151595	-0.375425	0.992067
	C2317	C	0.156538	-0.465575	0.993422
	C2318	C	0.166210	-0.465650	0.996330
	C2319	C	0.140978	-0.374991	0.990409
	C2320	C	0.184527	-0.125934	0.971853
	C2321	C	0.175281	-0.125925	0.963957
	C2322	C	0.170781	-0.036465	0.960391
	C2323	C	0.162004	-0.036511	0.953779
	C2324	C	0.157408	-0.126025	0.950527
	C2325	C	0.161928	-0.215655	0.953967
	C2326	C	0.170707	-0.215522	0.960570
	C2327	C	0.148023	-0.125880	0.943093
	C2328	C	0.211629	-0.126027	0.972548
	C2329	C	0.220768	-0.125957	0.963046
	C2330	C	0.225150	-0.214826	0.958583
	C2331	C	0.233599	-0.214617	0.949677
	C2332	C	0.237897	-0.125747	0.945091
	C2333	C	0.233537	-0.036902	0.949606
	C2334	C	0.225086	-0.036968	0.958498
	C2335	C	0.246931	-0.125652	0.935231
	H2336	H	0.236887	-0.283404	0.946255
	H2337	H	0.221874	-0.283630	0.962075
	H2338	H	0.236723	-0.216533	1.025271
	H2339	H	0.221129	-0.216754	1.013497
	H2340	H	0.198336	-0.375862	0.969174
	H2341	H	0.195167	-0.125990	1.008767
	H2342	H	0.127700	-0.124991	0.980271
	H2343	H	0.260193	-0.375765	0.936368
	H2344	H	0.174061	-0.285294	0.963135
	H2345	H	0.158469	-0.285040	0.951465
	H2346	H	0.152859	-0.215353	0.992434
	H2347	H	0.169946	-0.215633	0.997650
	H2348	H	0.158627	0.033090	0.951122
	H2349	H	0.174225	0.033110	0.962892
	H2350	H	0.169905	-0.535756	0.997538
	H2351	H	0.152805	-0.535486	0.992360
	H2352	H	0.221046	-0.535338	1.013833
	H2353	H	0.236614	-0.535228	1.025615
	H2354	H	0.221785	0.031870	0.961872
	H2355	H	0.236784	0.032123	0.946073
	Al2356	Al	0.197423	-0.001239	0.989168
	Al2357	Al	0.197434	0.249608	0.989029
	Al2358	Al	0.134930	0.248503	0.926683
	Al2359	Al	0.134912	-0.000246	0.926658
	O2360	O	0.206808	0.040102	1.002698
	O2361	O	0.197910	0.123956	0.979544
	O2362	O	0.196559	0.374068	0.998505
	O2363	O	0.250637	0.040269	1.037505
	O2364	O	0.185945	0.040355	1.000374
	O2365	O	0.136745	0.041203	0.989859
	O2366	O	0.185988	0.208757	1.000276
	O2367	O	0.188203	0.290192	0.974839
	O2368	O	0.144276	0.290267	0.940275
	O2369	O	0.206853	0.208120	1.002562
	O2370	O	0.207998	0.290066	0.976043
	O2371	O	0.250506	0.289853	0.931444
	O2372	O	0.136758	0.209331	0.989977
	O2373	O	0.188147	0.458253	0.974852
	O2374	O	0.144279	0.458558	0.940469
	O2375	O	0.250499	0.457995	0.931440
	O2376	O	0.208019	0.457887	0.976138
	O2377	O	0.250661	0.208321	1.037420
	O2378	O	0.126131	0.375122	0.990445
	O2379	O	0.260380	0.124283	0.926079
	C2380	C	0.233241	0.213677	1.022968
	C2381	C	0.237760	0.124155	1.026453
	C2382	C	0.233250	0.034566	1.022957
	C2383	C	0.224462	0.034733	1.016360
	C2384	C	0.219909	0.124187	1.013024
	C2385	C	0.224448	0.213785	1.016371
	C2386	C	0.210521	0.124115	1.005533
	C2387	C	0.247030	0.124152	1.034332
	C2388	C	0.181776	0.124624	0.999727
	C2389	C	0.171190	0.125136	0.997817
	C2390	C	0.166246	0.215305	0.996387
	C2391	C	0.156575	0.215277	0.993542
	C2392	C	0.151592	0.125268	0.992129
	C2393	C	0.156564	0.035257	0.993370
	C2394	C	0.166229	0.035257	0.996205
	C2395	C	0.140956	0.125183	0.990448
	C2396	C	0.184548	0.374104	0.971749
	C2397	C	0.175286	0.373707	0.963835
	C2398	C	0.170803	0.463337	0.960393
	C2399	C	0.161987	0.463507	0.953862
	C2400	C	0.157411	0.374133	0.950617
	C2401	C	0.161964	0.284502	0.953853
	C2402	C	0.170788	0.284224	0.960387
	C2403	C	0.147975	0.374282	0.943205
	C2404	C	0.211662	0.373955	0.972454
	C2405	C	0.220825	0.374033	0.963040
	C2406	C	0.225195	0.285098	0.958538
	C2407	C	0.233663	0.285083	0.949680
	C2408	C	0.237970	0.373962	0.945091
	C2409	C	0.233624	0.462921	0.949627
	C2410	C	0.225164	0.462911	0.958493
	C2411	C	0.246968	0.373786	0.935221
	H2412	H	0.236924	0.216110	0.946135
	H2413	H	0.221940	0.216497	0.962074
	H2414	H	0.236637	0.283636	1.025497
	H2415	H	0.221037	0.283480	1.013734
	H2416	H	0.198368	0.123623	0.969169
	H2417	H	0.195059	0.374233	1.008593
	H2418	H	0.127691	0.374864	0.980375
	H2419	H	0.260464	0.124227	0.936349
	H2420	H	0.174149	0.214509	0.963012
	H2421	H	0.158578	0.214679	0.951343
	H2422	H	0.152825	0.285305	0.992514
	H2423	H	0.169972	0.285163	0.997649
	H2424	H	0.158590	0.533207	0.951270
	H2425	H	0.174152	0.533287	0.962970
	H2426	H	0.169945	-0.035023	0.997308
	H2427	H	0.152830	-0.034897	0.992228
	H2428	H	0.221076	-0.035042	1.013706
	H2429	H	0.236650	-0.035397	1.025507
	H2430	H	0.221871	0.531651	0.961914
	H2431	H	0.236865	0.531835	0.946062
	Al2432	Al	0.322382	-0.501141	0.114258
	Al2433	Al	0.322414	-0.250372	0.114268
	Al2434	Al	0.259974	-0.250949	0.051574
	Al2435	Al	0.259892	-0.500268	0.051736
	O2436	O	0.331854	-0.459608	0.127733
	O2437	O	0.322922	-0.375787	0.104677
	O2438	O	0.321556	-0.125756	0.123764
	O2439	O	0.375553	-0.459761	0.162686
	O2440	O	0.310967	-0.459573	0.125551
	O2441	O	0.261757	-0.458853	0.114807
	O2442	O	0.310918	-0.291322	0.125460
	O2443	O	0.313135	-0.209730	0.100021
	O2444	O	0.269402	-0.209664	0.065081
	O2445	O	0.331822	-0.291519	0.127767
	O2446	O	0.332957	-0.209777	0.101287
	O2447	O	0.375428	-0.209828	0.056432
	O2448	O	0.261780	-0.290626	0.114901
	O2449	O	0.313052	-0.041490	0.100256
	O2450	O	0.269316	-0.041533	0.065167
	O2451	O	0.375399	-0.041348	0.056395
	O2452	O	0.332959	-0.041712	0.101378
	O2453	O	0.375693	-0.291706	0.162502
	O2454	O	0.251124	-0.124667	0.115422
	O2455	O	0.385371	-0.375201	0.051181
	C2456	C	0.358226	-0.285960	0.148153
	C2457	C	0.362771	-0.375467	0.151518
	C2458	C	0.358309	-0.464996	0.147915
	C2459	C	0.349520	-0.465113	0.141271
	C2460	C	0.344937	-0.375705	0.138086
	C2461	C	0.349423	-0.286113	0.141549
	C2462	C	0.335535	-0.375638	0.130612
	C2463	C	0.372019	-0.375535	0.159457
	C2464	C	0.306741	-0.375653	0.124904
	C2465	C	0.296149	-0.375766	0.122954
	C2466	C	0.291205	-0.285668	0.121434
	C2467	C	0.281565	-0.285366	0.118536
	C2468	C	0.276577	-0.375237	0.117068
	C2469	C	0.281527	-0.465365	0.118462
	C2470	C	0.291182	-0.465567	0.121379
	C2471	C	0.265973	-0.374851	0.115410
	C2472	C	0.309479	-0.125693	0.097017
	C2473	C	0.300227	-0.125791	0.089075
	C2474	C	0.295737	-0.036300	0.085537
	C2475	C	0.286969	-0.036073	0.078890
	C2476	C	0.282421	-0.125618	0.075566
	C2477	C	0.286935	-0.215370	0.078956
	C2478	C	0.295719	-0.215468	0.085608
	C2479	C	0.273056	-0.125493	0.068054
	C2480	C	0.336569	-0.125541	0.097714
	C2481	C	0.345745	-0.125678	0.088191
	C2482	C	0.350062	-0.214768	0.083621
	C2483	C	0.358498	-0.214565	0.074681
	C2484	C	0.362866	-0.125498	0.070127
	C2485	C	0.358579	-0.036360	0.074791
	C2486	C	0.350136	-0.036779	0.083715
	C2487	C	0.371877	-0.125672	0.060234
	H2488	H	0.361792	-0.283378	0.071106
	H2489	H	0.346785	-0.284013	0.087046
	H2490	H	0.361590	-0.216079	0.150761
	H2491	H	0.345993	-0.216645	0.139050
	H2492	H	0.323465	-0.375684	0.094297
	H2493	H	0.320160	-0.126270	0.133809
	H2494	H	0.252792	-0.124566	0.105364
	H2495	H	0.385406	-0.375008	0.061420
	H2496	H	0.299089	-0.285334	0.088142
	H2497	H	0.283527	-0.285068	0.076285
	H2498	H	0.277832	-0.215431	0.117416
	H2499	H	0.294944	-0.215614	0.122594
	H2500	H	0.283638	0.033828	0.076190
	H2501	H	0.299157	0.033697	0.088049
	H2502	H	0.294905	-0.535662	0.122474
	H2503	H	0.277780	-0.535271	0.117293
	H2504	H	0.346171	-0.534670	0.138547
	H2505	H	0.361721	-0.534820	0.150355
	H2506	H	0.346894	0.032148	0.087337
	H2507	H	0.361851	0.032690	0.071366
	Al2508	Al	0.322377	-0.001313	0.114374
	Al2509	Al	0.322430	0.249906	0.114182
	Al2510	Al	0.259934	0.249002	0.051629
	Al2511	Al	0.259933	-0.000105	0.051660
	O2512	O	0.331760	0.040235	0.127897
	O2513	O	0.322899	0.123944	0.104727
	O2514	O	0.321559	0.374321	0.123669
	O2515	O	0.375561	0.039934	0.162642
	O2516	O	0.310931	0.040760	0.125563
	O2517	O	0.261759	0.041039	0.114877
	O2518	O	0.310932	0.209065	0.125407
	O2519	O	0.313231	0.290525	0.099883
	O2520	O	0.269288	0.290190	0.065319
	O2521	O	0.331793	0.208717	0.127799
	O2522	O	0.333007	0.289642	0.101255
	O2523	O	0.375494	0.290464	0.056452
	O2524	O	0.261755	0.209408	0.114983
	O2525	O	0.313001	0.458569	0.100227
	O2526	O	0.269235	0.457919	0.065331
	O2527	O	0.375477	0.458602	0.056456
	O2528	O	0.332958	0.457733	0.101236
	O2529	O	0.375690	0.208314	0.162427
	O2530	O	0.251093	0.374824	0.115384
	O2531	O	0.385360	0.124576	0.051159
	C2532	C	0.358226	0.214074	0.148135
	C2533	C	0.362778	0.124337	0.151459
	C2534	C	0.358285	0.034651	0.147896
	C2535	C	0.349466	0.034927	0.141332
	C2536	C	0.344881	0.124641	0.138147
	C2537	C	0.349404	0.214225	0.141585
	C2538	C	0.335469	0.124470	0.130746
	C2539	C	0.372008	0.124352	0.159389
	C2540	C	0.306724	0.124915	0.124860
	C2541	C	0.296158	0.125143	0.122887
	C2542	C	0.291192	0.215016	0.121417
	C2543	C	0.281530	0.215130	0.118551
	C2544	C	0.276576	0.125131	0.117088
	C2545	C	0.281549	0.035260	0.118502
	C2546	C	0.291210	0.035187	0.121377
	C2547	C	0.265965	0.125216	0.115497
	C2548	C	0.309507	0.374341	0.096932
	C2549	C	0.300250	0.373886	0.089011
	C2550	C	0.295745	0.463541	0.085575
	C2551	C	0.286940	0.463596	0.078985
	C2552	C	0.282387	0.374080	0.075651
	C2553	C	0.286954	0.284495	0.078891
	C2554	C	0.295760	0.284484	0.085458
	C2555	C	0.272977	0.374343	0.068237
	C2556	C	0.336620	0.373966	0.097638
	C2557	C	0.345815	0.374214	0.088214
	C2558	C	0.350158	0.285196	0.083630
	C2559	C	0.358616	0.285090	0.074713
	C2560	C	0.362933	0.374326	0.070174
	C2561	C	0.358627	0.463341	0.074861
	C2562	C	0.350165	0.463363	0.083764
	C2563	C	0.371963	0.374557	0.060267
	H2564	H	0.361864	0.216357	0.071162
	H2565	H	0.346849	0.215892	0.087026
	H2566	H	0.361572	0.283926	0.150797
	H2567	H	0.345970	0.283835	0.139151
	H2568	H	0.323536	0.123906	0.094390
	H2569	H	0.320179	0.373745	0.133844
	H2570	H	0.252437	0.374397	0.105195
	H2571	H	0.385445	0.124563	0.061385
	H2572	H	0.299180	0.214726	0.087932
	H2573	H	0.283620	0.214747	0.076264
	H2574	H	0.277807	0.285180	0.117347
	H2575	H	0.294927	0.284927	0.122493
	H2576	H	0.283542	0.533284	0.076421
	H2577	H	0.299142	0.533607	0.088116
	H2578	H	0.294940	-0.035053	0.122441
	H2579	H	0.277841	-0.034907	0.117277
	H2580	H	0.346103	-0.034854	0.138676
	H2581	H	0.361693	-0.035113	0.150386
	H2582	H	0.346911	0.532492	0.087282
	H2583	H	0.361916	0.532311	0.071397
	Al2584	Al	0.312517	-0.500127	0.187450
	Al2585	Al	0.312475	-0.250205	0.187508
	Al2586	Al	0.250000	-0.249937	0.124888
	Al2587	Al	0.250030	-0.500150	0.124906
	O2588	O	0.321372	-0.459027	0.202306
	O2589	O	0.313670	-0.375004	0.178012
	O2590	O	0.311305	-0.125230	0.196984
	O2591	O	0.366126	-0.458793	0.235195
	O2592	O	0.300706	-0.459403	0.197388
	O2593	O	0.251533	-0.458289	0.187103
	O2594	O	0.300729	-0.291226	0.197709
	O2595	O	0.303528	-0.209367	0.172830
	O2596	O	0.258943	-0.208870	0.139606
	O2597	O	0.321409	-0.291126	0.202226
	O2598	O	0.324218	-0.209060	0.177385
	O2599	O	0.373409	-0.210196	0.187848
	O2600	O	0.251516	-0.289837	0.187086
	O2601	O	0.303604	-0.041681	0.172779
	O2602	O	0.258894	-0.040826	0.139697
	O2603	O	0.373459	-0.041893	0.188010
	O2604	O	0.324240	-0.040913	0.177308
	O2605	O	0.366119	-0.290796	0.235143
	O2606	O	0.240923	-0.124404	0.188814
	O2607	O	0.384097	-0.375613	0.186231
	C2608	C	0.348280	-0.285039	0.221610
	C2609	C	0.352919	-0.374704	0.224784
	C2610	C	0.348261	-0.464379	0.221677
	C2611	C	0.339244	-0.464336	0.215742
	C2612	C	0.334574	-0.374844	0.212625
	C2613	C	0.339258	-0.285227	0.215673
	C2614	C	0.325109	-0.375078	0.205192
	C2615	C	0.362399	-0.374941	0.232246
	C2616	C	0.296509	-0.375206	0.197041
	C2617	C	0.285897	-0.374863	0.195423
	C2618	C	0.280959	-0.284743	0.194025
	C2619	C	0.271304	-0.284348	0.191134
	C2620	C	0.266320	-0.374067	0.189605
	C2621	C	0.271244	-0.464360	0.191072
	C2622	C	0.280899	-0.464759	0.193980
	C2623	C	0.255718	-0.373978	0.187711
	C2624	C	0.299847	-0.125396	0.169846
	C2625	C	0.290395	-0.125222	0.162377
	C2626	C	0.285745	-0.035486	0.159261
	C2627	C	0.276733	-0.035440	0.153235
	C2628	C	0.272074	-0.125180	0.150105
	C2629	C	0.276752	-0.214892	0.153173
	C2630	C	0.285756	-0.214925	0.159191
	C2631	C	0.262623	-0.124880	0.142611
	C2632	C	0.328430	-0.125035	0.177909
	C2633	C	0.339030	-0.124990	0.179597
	C2634	C	0.343980	-0.214905	0.181093
	C2635	C	0.353648	-0.215149	0.183988
	C2636	C	0.358638	-0.125393	0.185378
	C2637	C	0.353690	-0.035414	0.183869
	C2638	C	0.344020	-0.035206	0.180978
	C2639	C	0.369219	-0.125872	0.187328
	H2640	H	0.357350	-0.285366	0.185142
	H2641	H	0.340235	-0.285038	0.179954
	H2642	H	0.351748	-0.214970	0.223834
	H2643	H	0.335817	-0.214845	0.213381
	H2644	H	0.315373	-0.374663	0.167909
	H2645	H	0.309802	-0.125015	0.207140
	H2646	H	0.242368	-0.123649	0.178697
	H2647	H	0.382585	-0.375451	0.196367
	H2648	H	0.289201	-0.285597	0.161398
	H2649	H	0.273318	-0.285029	0.150816
	H2650	H	0.267594	-0.214385	0.189979
	H2651	H	0.284696	-0.214736	0.195168
	H2652	H	0.273303	0.034915	0.151006
	H2653	H	0.289201	0.034805	0.161580
	H2654	H	0.284637	-0.534917	0.195090
	H2655	H	0.267487	-0.534133	0.189909
	H2656	H	0.335800	-0.534725	0.213497
	H2657	H	0.351717	-0.534612	0.223994
	H2658	H	0.340324	0.035018	0.179782
	H2659	H	0.357432	0.034414	0.184935
	Al2660	Al	0.312475	-0.000033	0.187430
	Al2661	Al	0.312517	0.249971	0.187412
	Al2662	Al	0.249961	0.249985	0.125020
	Al2663	Al	0.249949	-0.000121	0.125001
	O2664	O	0.321356	0.040774	0.202257
	O2665	O	0.313661	0.124947	0.177914
	O2666	O	0.311338	0.374960	0.196927
	O2667	O	0.366107	0.041156	0.235170
	O2668	O	0.300680	0.040833	0.197490
	O2669	O	0.251474	0.041602	0.187125
	O2670	O	0.300720	0.208943	0.197432
	O2671	O	0.303566	0.290695	0.172668
	O2672	O	0.258844	0.291425	0.139701
	O2673	O	0.321382	0.208845	0.202243
	O2674	O	0.324304	0.291233	0.177421
	O2675	O	0.373438	0.289554	0.187856
	O2676	O	0.251492	0.209789	0.187258
	O2677	O	0.303632	0.458591	0.172666
	O2678	O	0.258899	0.459390	0.139685
	O2679	O	0.373508	0.457914	0.188065
	O2680	O	0.324326	0.459551	0.177363
	O2681	O	0.366078	0.208850	0.235228
	O2682	O	0.240940	0.375462	0.188884
	O2683	O	0.384085	0.124130	0.186152
	C2684	C	0.348246	0.214699	0.221666
	C2685	C	0.352878	0.125056	0.224916
	C2686	C	0.348245	0.035208	0.221723
	C2687	C	0.339225	0.034952	0.215770
	C2688	C	0.334572	0.124668	0.212623
	C2689	C	0.339226	0.214479	0.215712
	C2690	C	0.325062	0.124666	0.205188
	C2691	C	0.362389	0.124928	0.232253
	C2692	C	0.296503	0.124994	0.196912
	C2693	C	0.285888	0.125305	0.195308
	C2694	C	0.280945	0.215379	0.193806
	C2695	C	0.271274	0.215542	0.190956
	C2696	C	0.266287	0.125526	0.189588
	C2697	C	0.271243	0.035571	0.191102
	C2698	C	0.280892	0.035302	0.193978
	C2699	C	0.255702	0.125671	0.187757
	C2700	C	0.299896	0.374889	0.169690
	C2701	C	0.290353	0.374999	0.162426
	C2702	C	0.285729	0.464867	0.159200
	C2703	C	0.276726	0.464913	0.153217
	C2704	C	0.272019	0.375300	0.150147
	C2705	C	0.276703	0.285550	0.153215
	C2706	C	0.285709	0.285306	0.159197
	C2707	C	0.262548	0.375377	0.142727
	C2708	C	0.328505	0.375389	0.177951
	C2709	C	0.339124	0.374810	0.179613
	C2710	C	0.344079	0.284688	0.181128
	C2711	C	0.353722	0.284439	0.184053
	C2712	C	0.358683	0.374296	0.185500
	C2713	C	0.353745	0.464324	0.183913
	C2714	C	0.344109	0.464543	0.180984
	C2715	C	0.369277	0.373955	0.187402
	H2716	H	0.357445	0.214236	0.185222
	H2717	H	0.340357	0.214848	0.179987
	H2718	H	0.351697	0.285056	0.223920
	H2719	H	0.335734	0.284644	0.213494
	H2720	H	0.315257	0.124836	0.167749
	H2721	H	0.309900	0.374465	0.207059
	H2722	H	0.242494	0.375757	0.178800
	H2723	H	0.382633	0.124628	0.196232
	H2724	H	0.289175	0.215123	0.161448
	H2725	H	0.273212	0.215368	0.150980
	H2726	H	0.267575	0.285781	0.189827
	H2727	H	0.284701	0.285330	0.194856
	H2728	H	0.273230	0.535123	0.151005
	H2729	H	0.289207	0.535002	0.161507
	H2730	H	0.284561	-0.034894	0.195207
	H2731	H	0.267474	-0.034221	0.190113
	H2732	H	0.335720	-0.035272	0.213627
	H2733	H	0.351677	-0.034906	0.224040
	H2734	H	0.340391	0.534613	0.179735
	H2735	H	0.357522	0.534214	0.184904
	Al2736	Al	0.302572	-0.498875	0.260907
	Al2737	Al	0.302535	-0.249609	0.260882
	Al2738	Al	0.240058	-0.248853	0.198249
	Al2739	Al	0.240019	-0.499900	0.198309
	O2740	O	0.311829	-0.458452	0.275094
	O2741	O	0.303416	-0.374320	0.251444
	O2742	O	0.302026	-0.124321	0.270406
	O2743	O	0.355676	-0.458641	0.309873
	O2744	O	0.292027	-0.458280	0.273870
	O2745	O	0.249516	-0.458656	0.318601
	O2746	O	0.292014	-0.290381	0.273825
	O2747	O	0.293182	-0.208551	0.247248
	O2748	O	0.249389	-0.208462	0.212374
	O2749	O	0.311872	-0.290302	0.274982
	O2750	O	0.314019	-0.208322	0.249672
	O2751	O	0.363187	-0.209342	0.260007
	O2752	O	0.249535	-0.290691	0.318617
	O2753	O	0.293231	-0.040224	0.247162
	O2754	O	0.249374	-0.040367	0.212500
	O2755	O	0.363217	-0.040965	0.260078
	O2756	O	0.314071	-0.039960	0.249754
	O2757	O	0.355728	-0.290274	0.309717
	O2758	O	0.239675	-0.124512	0.323902
	O2759	O	0.373782	-0.375097	0.259474
	C2760	C	0.338078	-0.285080	0.296034
	C2761	C	0.342579	-0.374689	0.299483
	C2762	C	0.337975	-0.464141	0.296303
	C2763	C	0.329170	-0.464271	0.289691
	C2764	C	0.324712	-0.374603	0.286070
	C2765	C	0.329281	-0.285100	0.289421
	C2766	C	0.315462	-0.374333	0.278147
	C2767	C	0.351996	-0.374434	0.306927
	C2768	C	0.288370	-0.374336	0.277451
	C2769	C	0.279181	-0.374415	0.286874
	C2770	C	0.274833	-0.285639	0.291417
	C2771	C	0.266359	-0.285720	0.300281
	C2772	C	0.262034	-0.374895	0.304813
	C2773	C	0.266360	-0.463651	0.300240
	C2774	C	0.274826	-0.463491	0.291364
	C2775	C	0.253065	-0.374609	0.314756
	C2776	C	0.289498	-0.124329	0.244347
	C2777	C	0.280100	-0.124363	0.236894
	C2778	C	0.275574	-0.034650	0.233473
	C2779	C	0.266775	-0.034691	0.226875
	C2780	C	0.262247	-0.124532	0.223511
	C2781	C	0.266732	-0.214149	0.227068
	C2782	C	0.275533	-0.214134	0.233694
	C2783	C	0.253002	-0.124631	0.215545
	C2784	C	0.318258	-0.124376	0.250293
	C2785	C	0.328832	-0.124387	0.252150
	C2786	C	0.333775	-0.214526	0.253566
	C2787	C	0.343437	-0.214663	0.256431
	C2788	C	0.348413	-0.124816	0.257876
	C2789	C	0.343458	-0.034590	0.256588
	C2790	C	0.333803	-0.034442	0.253721
	C2791	C	0.359002	-0.125005	0.259553
	H2792	H	0.347168	-0.284633	0.257512
	H2793	H	0.330049	-0.284522	0.252378
	H2794	H	0.341510	-0.215361	0.298522
	H2795	H	0.325909	-0.214950	0.286826
	H2796	H	0.304886	-0.374386	0.241314
	H2797	H	0.301650	-0.124716	0.280782
	H2798	H	0.239625	-0.124661	0.313590
	H2799	H	0.372252	-0.374970	0.269601
	H2800	H	0.278924	-0.284038	0.236311
	H2801	H	0.263329	-0.283995	0.224580
	H2802	H	0.263111	-0.216869	0.303827
	H2803	H	0.278106	-0.216656	0.287966
	H2804	H	0.263442	0.035317	0.224188
	H2805	H	0.278989	0.035010	0.235880
	H2806	H	0.278080	-0.532560	0.287832
	H2807	H	0.263097	-0.532807	0.303726
	H2808	H	0.325736	-0.534037	0.287286
	H2809	H	0.341330	-0.533869	0.298970
	H2810	H	0.330081	0.035679	0.252649
	H2811	H	0.347178	0.035488	0.257789
	Al2812	Al	0.302598	0.001011	0.260814
	Al2813	Al	0.302586	0.250177	0.260748
	Al2814	Al	0.240019	0.250779	0.198416
	Al2815	Al	0.240027	0.000026	0.198322
	O2816	O	0.311862	0.041155	0.275026
	O2817	O	0.303451	0.125692	0.251297
	O2818	O	0.302066	0.375291	0.270367
	O2819	O	0.355677	0.041199	0.309790
	O2820	O	0.291973	0.041829	0.273725
	O2821	O	0.249566	0.041407	0.318615
	O2822	O	0.292007	0.209803	0.273716
	O2823	O	0.293173	0.291946	0.247217
	O2824	O	0.249321	0.291442	0.212538
	O2825	O	0.311857	0.209332	0.274921
	O2826	O	0.314069	0.291418	0.249507
	O2827	O	0.363246	0.290641	0.260089
	O2828	O	0.249543	0.209379	0.318641
	O2829	O	0.293150	0.459916	0.247320
	O2830	O	0.249357	0.459669	0.212422
	O2831	O	0.363262	0.458684	0.260110
	O2832	O	0.314054	0.459963	0.249706
	O2833	O	0.355661	0.209612	0.309801
	O2834	O	0.239607	0.375703	0.323996
	O2835	O	0.373750	0.124796	0.259544
	C2836	C	0.338037	0.215087	0.296051
	C2837	C	0.342546	0.125536	0.299477
	C2838	C	0.337979	0.035915	0.296210
	C2839	C	0.329198	0.035718	0.289597
	C2840	C	0.324716	0.125404	0.286063
	C2841	C	0.329257	0.215021	0.289424
	C2842	C	0.315473	0.125456	0.278100
	C2843	C	0.351933	0.125448	0.306989
	C2844	C	0.288339	0.125872	0.277316
	C2845	C	0.279213	0.125780	0.286846
	C2846	C	0.274845	0.214717	0.291390
	C2847	C	0.266419	0.214646	0.300299
	C2848	C	0.262080	0.125607	0.304907
	C2849	C	0.266397	0.036574	0.300251
	C2850	C	0.274828	0.036684	0.291320
	C2851	C	0.253117	0.125339	0.314825
	C2852	C	0.289457	0.376030	0.244450
	C2853	C	0.280066	0.375805	0.236931
	C2854	C	0.275542	0.465338	0.233490
	C2855	C	0.266765	0.465344	0.226864
	C2856	C	0.262232	0.375646	0.223469
	C2857	C	0.266740	0.286133	0.227026
	C2858	C	0.275509	0.286080	0.233657
	C2859	C	0.252967	0.375633	0.215586
	C2860	C	0.318253	0.375731	0.250200
	C2861	C	0.328852	0.375554	0.252056
	C2862	C	0.333810	0.285521	0.253416
	C2863	C	0.343475	0.284932	0.256319
	C2864	C	0.348441	0.374835	0.257805
	C2865	C	0.343474	0.465069	0.256525
	C2866	C	0.333814	0.465414	0.253643
	C2867	C	0.359043	0.374635	0.259561
	H2868	H	0.347195	0.214618	0.257364
	H2869	H	0.330069	0.215856	0.252146
	H2870	H	0.341442	0.284853	0.298591
	H2871	H	0.325888	0.284804	0.286785
	H2872	H	0.304891	0.125276	0.241206
	H2873	H	0.301434	0.374835	0.280713
	H2874	H	0.239466	0.375527	0.313737
	H2875	H	0.372159	0.125189	0.269665
	H2876	H	0.278899	0.216507	0.236312
	H2877	H	0.263355	0.216348	0.224482
	H2878	H	0.263139	0.283639	0.303820
	H2879	H	0.278099	0.283819	0.287872
	H2880	H	0.263402	0.535009	0.224219
	H2881	H	0.278963	0.535038	0.236014
	H2882	H	0.278075	-0.032359	0.287678
	H2883	H	0.263105	-0.032437	0.303726
	H2884	H	0.325812	-0.033997	0.287036
	H2885	H	0.341347	-0.033800	0.298861
	H2886	H	0.330100	0.535691	0.252593
	H2887	H	0.347217	0.534724	0.257785
	Al2888	Al	0.302331	-0.499646	0.395833
	Al2889	Al	0.302314	-0.249952	0.395904
	Al2890	Al	0.239833	-0.249370	0.333343
	Al2891	Al	0.239759	-0.499400	0.333338
	O2892	O	0.312463	-0.458725	0.408106
	O2893	O	0.302203	-0.374725	0.386437
	O2894	O	0.302537	-0.124473	0.405246
	O2895	O	0.354783	-0.458657	0.445973
	O2896	O	0.292809	-0.458764	0.410854
	O2897	O	0.253852	-0.458777	0.463245
	O2898	O	0.292796	-0.290743	0.410891
	O2899	O	0.292274	-0.209089	0.383529
	O2900	O	0.249937	-0.208692	0.345548
	O2901	O	0.312418	-0.290604	0.408148
	O2902	O	0.312085	-0.208743	0.381205
	O2903	O	0.354466	-0.208332	0.336270
	O2904	O	0.253847	-0.290734	0.463239
	O2905	O	0.292255	-0.040854	0.383536
	O2906	O	0.249939	-0.040764	0.345544
	O2907	O	0.354485	-0.040443	0.336290
	O2908	O	0.312041	-0.040492	0.381078
	O2909	O	0.354801	-0.290523	0.445921
	O2910	O	0.244186	-0.124907	0.469271
	O2911	O	0.364520	-0.374208	0.332912
	C2912	C	0.337862	-0.285491	0.430821
	C2913	C	0.342163	-0.374693	0.434656
	C2914	C	0.337890	-0.463798	0.430729
	C2915	C	0.329436	-0.463710	0.423239
	C2916	C	0.325071	-0.374594	0.419518
	C2917	C	0.329420	-0.285462	0.423314
	C2918	C	0.316020	-0.374585	0.411271
	C2919	C	0.351219	-0.374601	0.442812
	C2920	C	0.289489	-0.374874	0.415193
	C2921	C	0.281119	-0.374703	0.426409
	C2922	C	0.277127	-0.285729	0.431679
	C2923	C	0.269393	-0.285592	0.442133
	C2924	C	0.265448	-0.374636	0.447561
	C2925	C	0.269457	-0.463637	0.442286
	C2926	C	0.277187	-0.463706	0.431819
	C2927	C	0.257126	-0.374448	0.458870
	C2928	C	0.288705	-0.125102	0.380413
	C2929	C	0.279629	-0.125134	0.372215
	C2930	C	0.275326	-0.036158	0.368314
	C2931	C	0.266896	-0.035925	0.360735
	C2932	C	0.262564	-0.124744	0.356918
	C2933	C	0.266896	-0.213873	0.360734
	C2934	C	0.275328	-0.213994	0.368328
	C2935	C	0.253510	-0.124805	0.348703
	C2936	C	0.315593	-0.124667	0.377326
	C2937	C	0.324595	-0.124506	0.367414
	C2938	C	0.328924	-0.213523	0.362856
	C2939	C	0.337355	-0.213362	0.353913
	C2940	C	0.341672	-0.124274	0.349369
	C2941	C	0.337315	-0.035234	0.353865
	C2942	C	0.328876	-0.035342	0.362817
	C2943	C	0.350835	-0.124419	0.339847
	H2944	H	0.340618	-0.282541	0.350420
	H2945	H	0.325673	-0.282583	0.366330
	H2946	H	0.341163	-0.216724	0.433796
	H2947	H	0.326174	-0.216049	0.420299
	H2948	H	0.302077	-0.374731	0.376195
	H2949	H	0.302683	-0.124369	0.415529
	H2950	H	0.244008	-0.125432	0.458967
	H2951	H	0.363880	-0.374181	0.343269
	H2952	H	0.278614	-0.283189	0.371282
	H2953	H	0.263632	-0.282566	0.357755
	H2954	H	0.266388	-0.216262	0.446130
	H2955	H	0.280113	-0.216774	0.427595
	H2956	H	0.263652	0.033260	0.357754
	H2957	H	0.278621	0.032924	0.371211
	H2958	H	0.280194	-0.532743	0.427794
	H2959	H	0.266493	-0.532418	0.446412
	H2960	H	0.326181	-0.532531	0.420158
	H2961	H	0.341184	-0.532862	0.433575
	H2962	H	0.325572	0.033532	0.366280
	H2963	H	0.340547	0.033793	0.350347
	Al2964	Al	0.302340	0.000340	0.395773
	Al2965	Al	0.302286	0.249916	0.395828
	Al2966	Al	0.239812	0.250600	0.333316
	Al2967	Al	0.239829	0.000384	0.333291
	O2968	O	0.312457	0.041606	0.408067
	O2969	O	0.302111	0.125065	0.386459
	O2970	O	0.302515	0.375040	0.405273
	O2971	O	0.354732	0.041044	0.446044
	O2972	O	0.292841	0.041189	0.410873
	O2973	O	0.253868	0.040732	0.463245
	O2974	O	0.292782	0.209273	0.410915
	O2975	O	0.292223	0.291561	0.383588
	O2976	O	0.249898	0.291548	0.345607
	O2977	O	0.312412	0.209454	0.408104
	O2978	O	0.312003	0.290992	0.381111
	O2979	O	0.354462	0.291608	0.336304
	O2980	O	0.253866	0.208997	0.463278
	O2981	O	0.292223	0.459873	0.383582
	O2982	O	0.249881	0.459547	0.345612
	O2983	O	0.354482	0.459674	0.336316
	O2984	O	0.312027	0.459200	0.381107
	O2985	O	0.354790	0.209082	0.445999
	O2986	O	0.244204	0.375264	0.469221
	O2987	O	0.364605	0.125618	0.332855
	C2988	C	0.337810	0.214528	0.430874
	C2989	C	0.342148	0.125296	0.434610
	C2990	C	0.337818	0.036322	0.430773
	C2991	C	0.329373	0.036341	0.423250
	C2992	C	0.325065	0.125662	0.419422
	C2993	C	0.329360	0.214691	0.423348
	C2994	C	0.316008	0.125537	0.411200
	C2995	C	0.351190	0.124984	0.442859
	C2996	C	0.289511	0.125042	0.415270
	C2997	C	0.281164	0.124716	0.426492
	C2998	C	0.277158	0.213825	0.431754
	C2999	C	0.269414	0.213923	0.442166
	C3000	C	0.265459	0.125132	0.447602
	C3001	C	0.269467	0.036047	0.442343
	C3002	C	0.277225	0.035981	0.431933
	C3003	C	0.257158	0.124848	0.458922
	C3004	C	0.288673	0.375580	0.380415
	C3005	C	0.279624	0.375730	0.372178
	C3006	C	0.275316	0.464875	0.368316
	C3007	C	0.266883	0.464807	0.360753
	C3008	C	0.262562	0.375678	0.356875
	C3009	C	0.266857	0.286703	0.360789
	C3010	C	0.275295	0.286534	0.368359
	C3011	C	0.253462	0.375611	0.348703
	C3012	C	0.315556	0.375187	0.377368
	C3013	C	0.324532	0.375108	0.367398
	C3014	C	0.328876	0.286397	0.362858
	C3015	C	0.337340	0.286460	0.353955
	C3016	C	0.341659	0.375565	0.349403
	C3017	C	0.337298	0.464237	0.353942
	C3018	C	0.328849	0.464213	0.362851
	C3019	C	0.350847	0.375534	0.339925
	H3020	H	0.340662	0.217874	0.350534
	H3021	H	0.325657	0.217316	0.366496
	H3022	H	0.341066	0.283518	0.433890
	H3023	H	0.326055	0.283752	0.420471
	H3024	H	0.302075	0.125043	0.376195
	H3025	H	0.302723	0.374337	0.415547
	H3026	H	0.243844	0.374989	0.458934
	H3027	H	0.364116	0.125536	0.343174
	H3028	H	0.278532	0.217647	0.371368
	H3029	H	0.263544	0.217929	0.357893
	H3030	H	0.266421	0.282853	0.446261
	H3031	H	0.280154	0.282676	0.427649
	H3032	H	0.263614	0.533608	0.357803
	H3033	H	0.278613	0.533780	0.371265
	H3034	H	0.280254	-0.032957	0.427949
	H3035	H	0.266534	-0.032993	0.446520
	H3036	H	0.326097	-0.032701	0.420323
	H3037	H	0.341098	-0.032968	0.433710
	H3038	H	0.325601	0.533090	0.366448
	H3039	H	0.340586	0.533291	0.350502
	Al3040	Al	0.307027	-0.499660	0.541025
	Al3041	Al	0.307039	-0.249767	0.541037
	Al3042	Al	0.244475	-0.249984	0.478624
	Al3043	Al	0.244521	-0.499660	0.478574
	O3044	O	0.317223	-0.459186	0.553072
	O3045	O	0.306763	-0.374764	0.531687
	O3046	O	0.307418	-0.124938	0.550391
	O3047	O	0.359371	-0.458885	0.591567
	O3048	O	0.297729	-0.458766	0.556419
	O3049	O	0.259264	-0.458625	0.609681
	O3050	O	0.297726	-0.290597	0.556406
	O3051	O	0.296856	-0.208903	0.528993
	O3052	O	0.254723	-0.208770	0.490544
	O3053	O	0.317272	-0.291025	0.553043
	O3054	O	0.316372	-0.208378	0.525755
	O3055	O	0.355289	-0.208651	0.473428
	O3056	O	0.259341	-0.290673	0.609698
	O3057	O	0.296798	-0.040709	0.529037
	O3058	O	0.254743	-0.040429	0.490560
	O3059	O	0.355300	-0.040588	0.473423
	O3060	O	0.316384	-0.040099	0.525742
	O3061	O	0.359337	-0.290716	0.591484
	O3062	O	0.249647	-0.125012	0.615734
	O3063	O	0.365056	-0.374692	0.467709
	C3064	C	0.342530	-0.285937	0.576075
	C3065	C	0.346802	-0.375103	0.580020
	C3066	C	0.342479	-0.464252	0.576204
	C3067	C	0.334096	-0.464427	0.568516
	C3068	C	0.329837	-0.375282	0.564552
	C3069	C	0.334137	-0.286096	0.568404
	C3070	C	0.320807	-0.375281	0.556232
	C3071	C	0.355818	-0.374866	0.588350
	C3072	C	0.294472	-0.374462	0.560794
	C3073	C	0.286242	-0.374935	0.572298
	C3074	C	0.282351	-0.285867	0.577730
	C3075	C	0.274717	-0.285919	0.588348
	C3076	C	0.270771	-0.374961	0.593743
	C3077	C	0.274677	-0.464018	0.588315
	C3078	C	0.282314	-0.463994	0.577708
	C3079	C	0.262562	-0.374795	0.605268
	C3080	C	0.293257	-0.124795	0.525886
	C3081	C	0.284276	-0.124963	0.517497
	C3082	C	0.279962	-0.036143	0.513643
	C3083	C	0.271594	-0.036118	0.505931
	C3084	C	0.267319	-0.125028	0.501983
	C3085	C	0.271622	-0.214175	0.505858
	C3086	C	0.279999	-0.214092	0.513589
	C3087	C	0.258292	-0.124768	0.493706
	C3088	C	0.319650	-0.124221	0.521414
	C3089	C	0.327955	-0.124320	0.510069
	C3090	C	0.331896	-0.213436	0.504713
	C3091	C	0.339636	-0.213682	0.494303
	C3092	C	0.343641	-0.124728	0.489010
	C3093	C	0.339678	-0.035748	0.494304
	C3094	C	0.331940	-0.035541	0.504720
	C3095	C	0.351997	-0.124834	0.477764
	H3096	H	0.342620	-0.282283	0.490227
	H3097	H	0.328855	-0.282227	0.508759
	H3098	H	0.345789	-0.216684	0.579100
	H3099	H	0.330883	-0.217287	0.565388
	H3100	H	0.306560	-0.374473	0.521451
	H3101	H	0.307817	-0.124428	0.560626
	H3102	H	0.249214	-0.124281	0.605529
	H3103	H	0.365417	-0.374776	0.477952
	H3104	H	0.283251	-0.282834	0.516672
	H3105	H	0.268356	-0.283232	0.502902
	H3106	H	0.271822	-0.216813	0.592547
	H3107	H	0.285324	-0.216870	0.573619
	H3108	H	0.268316	0.032892	0.503015
	H3109	H	0.283164	0.032927	0.516711
	H3110	H	0.285250	-0.532976	0.573561
	H3111	H	0.271733	-0.533031	0.592440
	H3112	H	0.330833	-0.533240	0.565569
	H3113	H	0.345687	-0.533353	0.579274
	H3114	H	0.328968	0.033339	0.508752
	H3115	H	0.342702	0.032942	0.490205
	Al3116	Al	0.307010	0.000221	0.541062
	Al3117	Al	0.307008	0.249947	0.541059
	Al3118	Al	0.244519	0.250196	0.478574
	Al3119	Al	0.244517	0.000379	0.478548
	O3120	O	0.317209	0.041023	0.553201
	O3121	O	0.306716	0.125124	0.531714
	O3122	O	0.307349	0.375143	0.550358
	O3123	O	0.359312	0.040884	0.591505
	O3124	O	0.297694	0.040840	0.556337
	O3125	O	0.259281	0.040685	0.609639
	O3126	O	0.297687	0.208829	0.556346
	O3127	O	0.296829	0.290901	0.529033
	O3128	O	0.254740	0.290781	0.490633
	O3129	O	0.317231	0.209286	0.553051
	O3130	O	0.316346	0.291088	0.525725
	O3131	O	0.355284	0.291153	0.473340
	O3132	O	0.259321	0.208686	0.609722
	O3133	O	0.296792	0.459177	0.529096
	O3134	O	0.254756	0.459263	0.490575
	O3135	O	0.355313	0.459285	0.473380
	O3136	O	0.316371	0.459335	0.525701
	O3137	O	0.359337	0.209103	0.591510
	O3138	O	0.249709	0.374899	0.615757
	O3139	O	0.365030	0.125227	0.467791
	C3140	C	0.342545	0.214319	0.575939
	C3141	C	0.346784	0.125211	0.579939
	C3142	C	0.342500	0.035971	0.576084
	C3143	C	0.334097	0.035951	0.568465
	C3144	C	0.329819	0.125103	0.564510
	C3145	C	0.334145	0.214233	0.568317
	C3146	C	0.320772	0.125147	0.556246
	C3147	C	0.355782	0.125049	0.588295
	C3148	C	0.294441	0.124997	0.560766
	C3149	C	0.286222	0.124872	0.572272
	C3150	C	0.282335	0.213951	0.577769
	C3151	C	0.274713	0.213801	0.588380
	C3152	C	0.270780	0.124569	0.593783
	C3153	C	0.274703	0.035508	0.588333
	C3154	C	0.282318	0.035750	0.577704
	C3155	C	0.262568	0.124568	0.605310
	C3156	C	0.293270	0.374884	0.525879
	C3157	C	0.284278	0.374781	0.517507
	C3158	C	0.279985	0.464006	0.513671
	C3159	C	0.271586	0.464221	0.506002
	C3160	C	0.267317	0.375010	0.502038
	C3161	C	0.271611	0.285789	0.505868
	C3162	C	0.279985	0.285608	0.513580
	C3163	C	0.258307	0.374960	0.493712
	C3164	C	0.319652	0.375343	0.521381
	C3165	C	0.327989	0.375137	0.510059
	C3166	C	0.331962	0.286338	0.504737
	C3167	C	0.339694	0.286313	0.494325
	C3168	C	0.343654	0.375189	0.488975
	C3169	C	0.339679	0.464078	0.494265
	C3170	C	0.331946	0.464175	0.504681
	C3171	C	0.352010	0.375176	0.477650
	H3172	H	0.342703	0.217123	0.490253
	H3173	H	0.328957	0.217429	0.508798
	H3174	H	0.345790	0.283592	0.578876
	H3175	H	0.330891	0.283021	0.565192
	H3176	H	0.306362	0.125845	0.521464
	H3177	H	0.307746	0.375803	0.560603
	H3178	H	0.249424	0.375721	0.605524
	H3179	H	0.365452	0.125138	0.478042
	H3180	H	0.283226	0.216752	0.516557
	H3181	H	0.268374	0.216897	0.502781
	H3182	H	0.271801	0.282750	0.592571
	H3183	H	0.285292	0.283101	0.573659
	H3184	H	0.268350	0.533001	0.502997
	H3185	H	0.283225	0.532743	0.516740
	H3186	H	0.285261	-0.033130	0.573532
	H3187	H	0.271765	-0.033782	0.592504
	H3188	H	0.330852	-0.033042	0.565450
	H3189	H	0.345748	-0.032948	0.579179
	H3190	H	0.328925	0.532974	0.508749
	H3191	H	0.342650	0.532993	0.490157
	Al3192	Al	0.312524	-0.499867	0.687578
	Al3193	Al	0.312492	-0.249946	0.687602
	Al3194	Al	0.250026	-0.250303	0.625047
	Al3195	Al	0.249992	-0.500167	0.625116
	O3196	O	0.322726	-0.459254	0.699557
	O3197	O	0.312137	-0.374664	0.678262
	O3198	O	0.312845	-0.125067	0.696867
	O3199	O	0.364834	-0.458602	0.737988
	O3200	O	0.303213	-0.459013	0.702980
	O3201	O	0.264802	-0.458935	0.756301
	O3202	O	0.303207	-0.290854	0.702984
	O3203	O	0.302261	-0.209483	0.675587
	O3204	O	0.260182	-0.208764	0.637100
	O3205	O	0.322667	-0.291203	0.699613
	O3206	O	0.321806	-0.209262	0.672198
	O3207	O	0.360237	-0.208787	0.618886
	O3208	O	0.264838	-0.290831	0.756299
	O3209	O	0.302294	-0.041284	0.675508
	O3210	O	0.260263	-0.040539	0.636978
	O3211	O	0.360234	-0.040538	0.618936
	O3212	O	0.321844	-0.041162	0.672218
	O3213	O	0.364753	-0.290450	0.738087
	O3214	O	0.255142	-0.125023	0.762332
	O3215	O	0.369901	-0.374981	0.612861
	C3216	C	0.347931	-0.285653	0.722656
	C3217	C	0.352247	-0.374739	0.726533
	C3218	C	0.348027	-0.463940	0.722510
	C3219	C	0.339625	-0.464146	0.714840
	C3220	C	0.335288	-0.375121	0.711051
	C3221	C	0.339532	-0.285863	0.715037
	C3222	C	0.326238	-0.375151	0.702775
	C3223	C	0.361268	-0.374562	0.734873
	C3224	C	0.299955	-0.374689	0.707388
	C3225	C	0.291740	-0.374932	0.718902
	C3226	C	0.287851	-0.285900	0.724377
	C3227	C	0.280220	-0.285915	0.735014
	C3228	C	0.276297	-0.374931	0.740418
	C3229	C	0.280168	-0.463795	0.734943
	C3230	C	0.287797	-0.463640	0.724306
	C3231	C	0.268066	-0.374905	0.751887
	C3232	C	0.298752	-0.125223	0.672363
	C3233	C	0.289741	-0.124922	0.664025
	C3234	C	0.285516	-0.035630	0.660031
	C3235	C	0.277114	-0.035738	0.652383
	C3236	C	0.272768	-0.124907	0.648595
	C3237	C	0.277010	-0.214080	0.652586
	C3238	C	0.285414	-0.214108	0.660214
	C3239	C	0.263764	-0.124876	0.640238
	C3240	C	0.325057	-0.125218	0.667774
	C3241	C	0.333299	-0.125012	0.656274
	C3242	C	0.337172	-0.214029	0.650739
	C3243	C	0.344795	-0.214116	0.640127
	C3244	C	0.348744	-0.124898	0.634775
	C3245	C	0.344871	-0.035849	0.640301
	C3246	C	0.337246	-0.035753	0.650935
	C3247	C	0.356998	-0.124815	0.623353
	H3248	H	0.347723	-0.283063	0.635980
	H3249	H	0.334166	-0.282970	0.654799
	H3250	H	0.351122	-0.216611	0.725778
	H3251	H	0.336248	-0.217003	0.712098
	H3252	H	0.311771	-0.374641	0.668029
	H3253	H	0.313209	-0.124696	0.707144
	H3254	H	0.254845	-0.124386	0.752090
	H3255	H	0.370331	-0.375294	0.623128
	H3256	H	0.288649	-0.282992	0.663250
	H3257	H	0.273736	-0.283195	0.649684
	H3258	H	0.277290	-0.216849	0.739180
	H3259	H	0.290825	-0.217073	0.720237
	H3260	H	0.273880	0.033261	0.649292
	H3261	H	0.288820	0.033281	0.662891
	H3262	H	0.290696	-0.532886	0.720132
	H3263	H	0.277201	-0.532666	0.739041
	H3264	H	0.336419	-0.533162	0.711735
	H3265	H	0.351319	-0.532515	0.725439
	H3266	H	0.334322	0.033385	0.655154
	H3267	H	0.347909	0.033004	0.636266
	Al3268	Al	0.312490	-0.000296	0.687504
	Al3269	Al	0.312549	0.250011	0.687583
	Al3270	Al	0.250026	0.249874	0.625080
	Al3271	Al	0.249993	-0.000019	0.625107
	O3272	O	0.322720	0.040529	0.699576
	O3273	O	0.312189	0.124865	0.678286
	O3274	O	0.312843	0.375052	0.696869
	O3275	O	0.364806	0.040750	0.738026
	O3276	O	0.303199	0.040464	0.702878
	O3277	O	0.264820	0.040567	0.756314
	O3278	O	0.303272	0.208901	0.702992
	O3279	O	0.302273	0.290611	0.675643
	O3280	O	0.260241	0.290936	0.637064
	O3281	O	0.322754	0.208895	0.699535
	O3282	O	0.321797	0.290782	0.672125
	O3283	O	0.360234	0.291236	0.618907
	O3284	O	0.264748	0.208753	0.756183
	O3285	O	0.302296	0.458697	0.675611
	O3286	O	0.260246	0.459142	0.637081
	O3287	O	0.360233	0.459432	0.618875
	O3288	O	0.321794	0.458740	0.672167
	O3289	O	0.364769	0.208972	0.738123
	O3290	O	0.255209	0.374619	0.762235
	O3291	O	0.369833	0.124953	0.612873
	C3292	C	0.347940	0.213937	0.722708
	C3293	C	0.352260	0.124579	0.726516
	C3294	C	0.347993	0.035525	0.722501
	C3295	C	0.339622	0.035663	0.714790
	C3296	C	0.335310	0.124847	0.710993
	C3297	C	0.339554	0.214047	0.715001
	C3298	C	0.326293	0.124843	0.702694
	C3299	C	0.361251	0.124719	0.734877
	C3300	C	0.299971	0.124621	0.707330
	C3301	C	0.291754	0.124940	0.718872
	C3302	C	0.287887	0.213980	0.724391
	C3303	C	0.280243	0.213832	0.735031
	C3304	C	0.276275	0.124742	0.740344
	C3305	C	0.280152	0.035706	0.734852
	C3306	C	0.287802	0.035823	0.724216
	C3307	C	0.268040	0.124728	0.751854
	C3308	C	0.298740	0.374876	0.672445
	C3309	C	0.289745	0.374623	0.664088
	C3310	C	0.285488	0.463898	0.660131
	C3311	C	0.277110	0.464069	0.652456
	C3312	C	0.272817	0.375060	0.648537
	C3313	C	0.277061	0.285669	0.652508
	C3314	C	0.285449	0.285510	0.660196
	C3315	C	0.263801	0.374914	0.640251
	C3316	C	0.325029	0.374889	0.667722
	C3317	C	0.333281	0.375033	0.656267
	C3318	C	0.337186	0.285945	0.650783
	C3319	C	0.344820	0.286185	0.640171
	C3320	C	0.348763	0.375346	0.634784
	C3321	C	0.344872	0.464368	0.640281
	C3322	C	0.337225	0.464242	0.650874
	C3323	C	0.356992	0.375488	0.623305
	H3324	H	0.347773	0.217498	0.635974
	H3325	H	0.334179	0.217007	0.654824
	H3326	H	0.351175	0.282839	0.725826
	H3327	H	0.336259	0.283210	0.712079
	H3328	H	0.311765	0.124954	0.668025
	H3329	H	0.313006	0.374921	0.707173
	H3330	H	0.254760	0.375012	0.751988
	H3331	H	0.370036	0.124740	0.623152
	H3332	H	0.288643	0.216408	0.663313
	H3333	H	0.273776	0.216862	0.649528
	H3334	H	0.277321	0.283014	0.739247
	H3335	H	0.290834	0.283374	0.720315
	H3336	H	0.273909	0.533260	0.649441
	H3337	H	0.288735	0.532719	0.663201
	H3338	H	0.290689	-0.033139	0.719995
	H3339	H	0.277195	-0.033616	0.738869
	H3340	H	0.336401	-0.033316	0.711655
	H3341	H	0.351235	-0.033506	0.725362
	H3342	H	0.334278	0.533161	0.655055
	H3343	H	0.347860	0.533602	0.636229
	Al3344	Al	0.317982	-0.500363	0.834110
	Al3345	Al	0.317984	-0.250338	0.833987
	Al3346	Al	0.255511	-0.250077	0.771592
	Al3347	Al	0.255502	-0.500242	0.771587
	O3348	O	0.328169	-0.459544	0.846174
	O3349	O	0.317620	-0.375416	0.824719
	O3350	O	0.318360	-0.125464	0.843351
	O3351	O	0.370307	-0.459244	0.884431
	O3352	O	0.308659	-0.459023	0.849389
	O3353	O	0.269739	-0.459496	0.901693
	O3354	O	0.308646	-0.291120	0.849293
	O3355	O	0.307843	-0.209333	0.821917
	O3356	O	0.265707	-0.209724	0.783614
	O3357	O	0.328197	-0.291375	0.846020
	O3358	O	0.327317	-0.209614	0.818625
	O3359	O	0.365787	-0.209083	0.765469
	O3360	O	0.269671	-0.291487	0.901665
	O3361	O	0.307819	-0.041064	0.821995
	O3362	O	0.265700	-0.041505	0.783643
	O3363	O	0.365776	-0.041139	0.765441
	O3364	O	0.327360	-0.041730	0.818725
	O3365	O	0.370287	-0.291108	0.884486
	O3366	O	0.259999	-0.125632	0.907358
	O3367	O	0.375397	-0.375141	0.759297
	C3368	C	0.353436	-0.286195	0.869088
	C3369	C	0.357736	-0.375227	0.872973
	C3370	C	0.353458	-0.464266	0.869052
	C3371	C	0.345066	-0.464243	0.861415
	C3372	C	0.340759	-0.375245	0.857540
	C3373	C	0.345031	-0.286121	0.861456
	C3374	C	0.331750	-0.375571	0.849250
	C3375	C	0.366741	-0.375358	0.881307
	C3376	C	0.305376	-0.374997	0.853668
	C3377	C	0.297057	-0.375077	0.864996
	C3378	C	0.293098	-0.286209	0.870402
	C3379	C	0.285354	-0.286406	0.880815
	C3380	C	0.281363	-0.375186	0.886098
	C3381	C	0.285356	-0.463971	0.880757
	C3382	C	0.293103	-0.464014	0.870344
	C3383	C	0.273007	-0.375259	0.897304
	C3384	C	0.304305	-0.125171	0.818785
	C3385	C	0.295235	-0.125125	0.810567
	C3386	C	0.290918	-0.035966	0.806698
	C3387	C	0.282507	-0.036043	0.799090
	C3388	C	0.278253	-0.125383	0.795182
	C3389	C	0.282572	-0.214621	0.799036
	C3390	C	0.290980	-0.214598	0.806671
	C3391	C	0.269227	-0.125755	0.786827
	C3392	C	0.330590	-0.125609	0.814228
	C3393	C	0.338790	-0.125861	0.802724
	C3394	C	0.342689	-0.214663	0.797297
	C3395	C	0.350339	-0.214639	0.786659
	C3396	C	0.354281	-0.125617	0.781288
	C3397	C	0.350374	-0.036935	0.786714
	C3398	C	0.342739	-0.037086	0.797328
	C3399	C	0.362514	-0.125177	0.769832
	H3400	H	0.353309	-0.283401	0.782534
	H3401	H	0.339694	-0.283349	0.801308
	H3402	H	0.356684	-0.217393	0.872114
	H3403	H	0.341745	-0.217336	0.858473
	H3404	H	0.317232	-0.375715	0.814460
	H3405	H	0.318663	-0.125576	0.853607
	H3406	H	0.259740	-0.125675	0.897164
	H3407	H	0.375704	-0.375441	0.769552
	H3408	H	0.294281	-0.283555	0.809591
	H3409	H	0.279323	-0.283810	0.795951
	H3410	H	0.282362	-0.217798	0.884854
	H3411	H	0.296094	-0.217246	0.866336
	H3412	H	0.279248	0.033336	0.796064
	H3413	H	0.294186	0.032950	0.809699
	H3414	H	0.296101	-0.532837	0.866274
	H3415	H	0.282359	-0.532794	0.884794
	H3416	H	0.341827	-0.533095	0.858409
	H3417	H	0.356718	-0.533351	0.872041
	H3418	H	0.339778	0.031954	0.801360
	H3419	H	0.353332	0.032155	0.782635
	Al3420	Al	0.318061	-0.000513	0.834066
	Al3421	Al	0.317971	0.249636	0.834023
	Al3422	Al	0.255516	0.249773	0.771578
	Al3423	Al	0.255514	-0.000196	0.771625
	O3424	O	0.328225	0.040447	0.846079
	O3425	O	0.317659	0.124569	0.824728
	O3426	O	0.318302	0.374536	0.843383
	O3427	O	0.370326	0.040594	0.884482
	O3428	O	0.308690	0.040430	0.849379
	O3429	O	0.269694	0.040213	0.901582
	O3430	O	0.308666	0.208488	0.849362
	O3431	O	0.307821	0.290478	0.821967
	O3432	O	0.265735	0.290671	0.783528
	O3433	O	0.328202	0.208599	0.846080
	O3434	O	0.327288	0.290749	0.818723
	O3435	O	0.365731	0.291073	0.765409
	O3436	O	0.269662	0.208295	0.901573
	O3437	O	0.307781	0.458807	0.821990
	O3438	O	0.265678	0.458871	0.783631
	O3439	O	0.365692	0.459149	0.765387
	O3440	O	0.327293	0.458765	0.818747
	O3441	O	0.370316	0.208752	0.884466
	O3442	O	0.260054	0.374486	0.907329
	O3443	O	0.375366	0.124737	0.759344
	C3444	C	0.353451	0.213775	0.869117
	C3445	C	0.357735	0.124567	0.872997
	C3446	C	0.353440	0.035463	0.869093
	C3447	C	0.345031	0.035512	0.861457
	C3448	C	0.340754	0.124718	0.857579
	C3449	C	0.345052	0.213797	0.861475
	C3450	C	0.331765	0.124589	0.849227
	C3451	C	0.366765	0.124511	0.881337
	C3452	C	0.305395	0.124458	0.853701
	C3453	C	0.297054	0.124235	0.864993
	C3454	C	0.293073	0.213191	0.870273
	C3455	C	0.285300	0.212973	0.880667
	C3456	C	0.281354	0.124099	0.886025
	C3457	C	0.285367	0.035115	0.880788
	C3458	C	0.293128	0.035352	0.870395
	C3459	C	0.272979	0.124270	0.897215
	C3460	C	0.304273	0.374524	0.818804
	C3461	C	0.295232	0.374446	0.810566
	C3462	C	0.290940	0.463739	0.806679
	C3463	C	0.282526	0.463675	0.799036
	C3464	C	0.278259	0.374647	0.795111
	C3465	C	0.282561	0.285416	0.798992
	C3466	C	0.290975	0.285225	0.806621
	C3467	C	0.269241	0.374801	0.786777
	C3468	C	0.330559	0.374839	0.814334
	C3469	C	0.338768	0.374943	0.802817
	C3470	C	0.342666	0.286132	0.797328
	C3471	C	0.350298	0.286087	0.786713
	C3472	C	0.354222	0.375000	0.781275
	C3473	C	0.350313	0.463876	0.786756
	C3474	C	0.342685	0.463828	0.797384
	C3475	C	0.362462	0.375106	0.769821
	H3476	H	0.353250	0.217076	0.782584
	H3477	H	0.339723	0.217230	0.801488
	H3478	H	0.356712	0.282598	0.872116
	H3479	H	0.341823	0.282745	0.858453
	H3480	H	0.317371	0.124500	0.814476
	H3481	H	0.318719	0.373789	0.853646
	H3482	H	0.259845	0.374222	0.897109
	H3483	H	0.375778	0.124551	0.769619
	H3484	H	0.294279	0.216257	0.809519
	H3485	H	0.279331	0.216474	0.795951
	H3486	H	0.282297	0.282034	0.884644
	H3487	H	0.296038	0.282202	0.866144
	H3488	H	0.279249	0.532597	0.796045
	H3489	H	0.294184	0.532579	0.809637
	H3490	H	0.296142	-0.033615	0.866406
	H3491	H	0.282409	-0.034054	0.884916
	H3492	H	0.341791	-0.033384	0.858405
	H3493	H	0.356680	-0.033524	0.872144
	H3494	H	0.339773	0.532768	0.801540
	H3495	H	0.353294	0.532911	0.782622
	Al3496	Al	0.322704	-0.500397	0.979212
	Al3497	Al	0.322696	-0.250434	0.979170
	Al3498	Al	0.260195	-0.250384	0.916711
	Al3499	Al	0.260204	-0.500380	0.916698
	O3500	O	0.332798	-0.459436	0.991460
	O3501	O	0.322550	-0.375451	0.969799
	O3502	O	0.322798	-0.125702	0.988634
	O3503	O	0.375027	-0.459555	1.029546
	O3504	O	0.312999	-0.459855	0.993917
	O3505	O	0.270527	-0.459634	1.038881
	O3506	O	0.312934	-0.291875	0.993842
	O3507	O	0.312600	-0.209578	0.966840
	O3508	O	0.270261	-0.209952	0.929007
	O3509	O	0.332750	-0.291026	0.991553
	O3510	O	0.332239	-0.209522	0.964157
	O3511	O	0.371184	-0.209174	0.911878
	O3512	O	0.270507	-0.291893	1.038702
	O3513	O	0.312601	-0.041415	0.966897
	O3514	O	0.270247	-0.041782	0.929035
	O3515	O	0.371153	-0.041180	0.911811
	O3516	O	0.332209	-0.041432	0.964201
	O3517	O	0.375031	-0.291195	1.029571
	O3518	O	0.260473	-0.125462	1.042013
	O3519	O	0.380759	-0.375123	0.905814
	C3520	C	0.358055	-0.285974	1.014485
	C3521	C	0.362417	-0.375297	1.018194
	C3522	C	0.358150	-0.464456	1.014280
	C3523	C	0.349714	-0.464363	1.006715
	C3524	C	0.345373	-0.374977	1.002959
	C3525	C	0.349634	-0.285834	1.006903
	C3526	C	0.336332	-0.375315	0.994627
	C3527	C	0.371477	-0.375195	1.026428
	C3528	C	0.309424	-0.375857	0.997713
	C3529	C	0.300398	-0.376164	1.007549
	C3530	C	0.296032	-0.287225	1.012035
	C3531	C	0.287590	-0.287231	1.020969
	C3532	C	0.283304	-0.376162	1.025645
	C3533	C	0.287686	-0.465062	1.021219
	C3534	C	0.296124	-0.465135	1.012258
	C3535	C	0.274151	-0.376126	1.035162
	C3536	C	0.309022	-0.125497	0.963771
	C3537	C	0.299961	-0.125635	0.955587
	C3538	C	0.295628	-0.036828	0.951733
	C3539	C	0.287178	-0.036827	0.944212
	C3540	C	0.282875	-0.125921	0.940414
	C3541	C	0.287201	-0.214775	0.944270
	C3542	C	0.295650	-0.214725	0.951782
	C3543	C	0.273807	-0.126037	0.932206
	C3544	C	0.335526	-0.125397	0.959849
	C3545	C	0.343876	-0.125313	0.948587
	C3546	C	0.347889	-0.214088	0.943330
	C3547	C	0.355620	-0.214109	0.932882
	C3548	C	0.359565	-0.125177	0.927500
	C3549	C	0.355538	-0.036423	0.932740
	C3550	C	0.347803	-0.036510	0.943187
	C3551	C	0.367874	-0.125237	0.916153
	H3552	H	0.358603	-0.282900	0.928875
	H3553	H	0.344946	-0.283056	0.947476
	H3554	H	0.361299	-0.216948	1.017506
	H3555	H	0.346354	-0.216950	1.003989
	H3556	H	0.322466	-0.375069	0.959522
	H3557	H	0.322676	-0.126198	0.998929
	H3558	H	0.260970	-0.125014	1.031664
	H3559	H	0.380848	-0.375375	0.916098
	H3560	H	0.298925	-0.283543	0.954777
	H3561	H	0.283902	-0.283489	0.941377
	H3562	H	0.284310	-0.218116	1.024358
	H3563	H	0.299259	-0.218286	1.008453
	H3564	H	0.283872	0.031759	0.941289
	H3565	H	0.298868	0.031842	0.954706
	H3566	H	0.299421	-0.534120	1.008920
	H3567	H	0.284446	-0.533840	1.024790
	H3568	H	0.346454	-0.533114	1.003625
	H3569	H	0.361434	-0.533610	1.017146
	H3570	H	0.344801	0.032203	0.947211
	H3571	H	0.358486	0.032504	0.928577
	Al3572	Al	0.322688	-0.000455	0.979210
	Al3573	Al	0.322729	0.249424	0.979192
	Al3574	Al	0.260237	0.249189	0.916727
	Al3575	Al	0.260181	-0.000425	0.916694
	O3576	O	0.332738	0.040133	0.991562
	O3577	O	0.322495	0.124726	0.969864
	O3578	O	0.322928	0.374456	0.988551
	O3579	O	0.375094	0.040720	1.029460
	O3580	O	0.312968	0.040611	0.993955
	O3581	O	0.270505	0.040635	1.038755
	O3582	O	0.312958	0.208973	0.993907
	O3583	O	0.312633	0.290666	0.966939
	O3584	O	0.270282	0.290254	0.929017
	O3585	O	0.332725	0.208391	0.991600
	O3586	O	0.332241	0.290326	0.964181
	O3587	O	0.371204	0.290357	0.911848
	O3588	O	0.270490	0.208424	1.038627
	O3589	O	0.312593	0.458589	0.966954
	O3590	O	0.270231	0.458376	0.929033
	O3591	O	0.371177	0.458647	0.911826
	O3592	O	0.332214	0.458289	0.964141
	O3593	O	0.375021	0.208749	1.029515
	O3594	O	0.260386	0.374686	1.042115
	O3595	O	0.380899	0.124638	0.905847
	C3596	C	0.358071	0.213267	1.014452
	C3597	C	0.362423	0.124192	1.018164
	C3598	C	0.358134	0.034925	1.014306
	C3599	C	0.349694	0.034922	1.006747
	C3600	C	0.345357	0.124034	1.002964
	C3601	C	0.349628	0.213120	1.006905
	C3602	C	0.336300	0.124150	0.994740
	C3603	C	0.371491	0.124594	1.026394
	C3604	C	0.309455	0.124685	0.997715
	C3605	C	0.300420	0.124675	1.007591
	C3606	C	0.296052	0.213684	1.012048
	C3607	C	0.287598	0.213695	1.020934
	C3608	C	0.283313	0.124638	1.025579
	C3609	C	0.287719	0.035576	1.021211
	C3610	C	0.296171	0.035618	1.012298
	C3611	C	0.274115	0.124390	1.035064
	C3612	C	0.309045	0.374432	0.963809
	C3613	C	0.299962	0.374575	0.955664
	C3614	C	0.295606	0.463340	0.951931
	C3615	C	0.287153	0.463230	0.944412
	C3616	C	0.282853	0.374475	0.940462
	C3617	C	0.287216	0.285782	0.944215
	C3618	C	0.295667	0.285929	0.951743
	C3619	C	0.273809	0.374563	0.932189
	C3620	C	0.335529	0.374296	0.959869
	C3621	C	0.343888	0.374668	0.948564
	C3622	C	0.347872	0.285678	0.943252
	C3623	C	0.355632	0.285440	0.932802
	C3624	C	0.359598	0.374495	0.927507
	C3625	C	0.355585	0.463486	0.932757
	C3626	C	0.347829	0.463640	0.943206
	C3627	C	0.367908	0.374469	0.916135
	H3628	H	0.358575	0.216299	0.928692
	H3629	H	0.344872	0.216542	0.947289
	H3630	H	0.361301	0.282333	1.017540
	H3631	H	0.346338	0.282003	1.004037
	H3632	H	0.322202	0.124860	0.959548
	H3633	H	0.323028	0.374049	0.998766
	H3634	H	0.260718	0.374913	1.031804
	H3635	H	0.381210	0.124705	0.916096
	H3636	H	0.298994	0.217121	0.954541
	H3637	H	0.283950	0.217179	0.941247
	H3638	H	0.284286	0.282534	1.024274
	H3639	H	0.299274	0.282688	1.008474
	H3640	H	0.283824	0.531746	0.941584
	H3641	H	0.298849	0.532048	0.954915
	H3642	H	0.299503	-0.033365	1.008934
	H3643	H	0.284490	-0.033613	1.024779
	H3644	H	0.346430	-0.033994	1.003767
	H3645	H	0.361405	-0.034108	1.017313
	H3646	H	0.344826	0.532864	0.947190
	H3647	H	0.358521	0.532960	0.928594
	Al3648	Al	0.447646	-0.500481	0.104328
	Al3649	Al	0.447700	-0.250530	0.104246
	Al3650	Al	0.385158	-0.250440	0.041767
	Al3651	Al	0.385191	-0.500322	0.041751
	O3652	O	0.457715	-0.459682	0.116603
	O3653	O	0.447473	-0.375571	0.094889
	O3654	O	0.447864	-0.125536	0.113654
	O3655	O	0.500073	-0.459085	0.154484
	O3656	O	0.437943	-0.459339	0.119041
	O3657	O	0.395463	-0.459227	0.163788
	O3658	O	0.437933	-0.291040	0.118960
	O3659	O	0.437635	-0.209102	0.091931
	O3660	O	0.395211	-0.209243	0.054124
	O3661	O	0.457728	-0.291485	0.116593
	O3662	O	0.457212	-0.209684	0.089230
	O3663	O	0.496157	-0.209418	0.036946
	O3664	O	0.395528	-0.291139	0.163859
	O3665	O	0.437573	-0.041026	0.092031
	O3666	O	0.395197	-0.041033	0.054168
	O3667	O	0.496142	-0.041540	0.036942
	O3668	O	0.457177	-0.041688	0.089239
	O3669	O	0.500047	-0.290814	0.154485
	O3670	O	0.385400	-0.125512	0.167146
	O3671	O	0.505837	-0.375119	0.030958
	C3672	C	0.483097	-0.286108	0.139354
	C3673	C	0.487429	-0.375179	0.143164
	C3674	C	0.483085	-0.464660	0.139414
	C3675	C	0.474639	-0.464762	0.131873
	C3676	C	0.470312	-0.375570	0.128046
	C3677	C	0.474649	-0.286167	0.131838
	C3678	C	0.461290	-0.375598	0.119691
	C3679	C	0.496480	-0.375089	0.151424
	C3680	C	0.434350	-0.375154	0.122748
	C3681	C	0.425363	-0.375156	0.132642
	C3682	C	0.421037	-0.285988	0.137202
	C3683	C	0.412592	-0.285925	0.146133
	C3684	C	0.408254	-0.375000	0.150673
	C3685	C	0.412606	-0.464015	0.146168
	C3686	C	0.421044	-0.464072	0.137247
	C3687	C	0.399120	-0.375166	0.160215
	C3688	C	0.434039	-0.125061	0.088838
	C3689	C	0.424924	-0.125137	0.080674
	C3690	C	0.420599	-0.035949	0.076935
	C3691	C	0.412130	-0.036021	0.069417
	C3692	C	0.407829	-0.125205	0.065517
	C3693	C	0.412114	-0.214465	0.069353
	C3694	C	0.420583	-0.214360	0.076876
	C3695	C	0.398765	-0.125131	0.057277
	C3696	C	0.460490	-0.125584	0.084901
	C3697	C	0.468835	-0.125590	0.073643
	C3698	C	0.472831	-0.214530	0.068369
	C3699	C	0.480586	-0.214500	0.057955
	C3700	C	0.484526	-0.125403	0.052589
	C3701	C	0.480561	-0.036423	0.057931
	C3702	C	0.472812	-0.036490	0.068355
	C3703	C	0.492856	-0.125670	0.041290
	H3704	H	0.483649	-0.283617	0.053920
	H3705	H	0.469907	-0.283735	0.072474
	H3706	H	0.486371	-0.216763	0.142312
	H3707	H	0.471390	-0.217080	0.128830
	H3708	H	0.447354	-0.374776	0.084589
	H3709	H	0.447951	-0.125583	0.123910
	H3710	H	0.385855	-0.126273	0.156804
	H3711	H	0.506388	-0.375862	0.041181
	H3712	H	0.423863	-0.283324	0.079841
	H3713	H	0.408880	-0.283521	0.066410
	H3714	H	0.409312	-0.216764	0.149616
	H3715	H	0.424277	-0.216964	0.133631
	H3716	H	0.408856	0.033168	0.066524
	H3717	H	0.423826	0.033247	0.079897
	H3718	H	0.424289	-0.533032	0.133741
	H3719	H	0.409344	-0.533129	0.149665
	H3720	H	0.471364	-0.534007	0.128926
	H3721	H	0.486377	-0.533576	0.142373
	H3722	H	0.469801	0.032351	0.072385
	H3723	H	0.483555	0.032641	0.053882
	Al3724	Al	0.447709	-0.000534	0.104295
	Al3725	Al	0.447683	0.249566	0.104390
	Al3726	Al	0.385206	0.249488	0.041706
	Al3727	Al	0.385174	-0.000227	0.041765
	O3728	O	0.457749	0.039941	0.116681
	O3729	O	0.447550	0.124660	0.094978
	O3730	O	0.447810	0.374646	0.113681
	O3731	O	0.500081	0.040487	0.154527
	O3732	O	0.438011	0.040635	0.119056
	O3733	O	0.395452	0.040289	0.163673
	O3734	O	0.437955	0.208536	0.119001
	O3735	O	0.437564	0.290252	0.092066
	O3736	O	0.395306	0.290341	0.054008
	O3737	O	0.457700	0.208283	0.116690
	O3738	O	0.457174	0.290805	0.089314
	O3739	O	0.496150	0.290955	0.036944
	O3740	O	0.395467	0.208318	0.163609
	O3741	O	0.437558	0.458264	0.092081
	O3742	O	0.395270	0.458425	0.054050
	O3743	O	0.496148	0.459068	0.036946
	O3744	O	0.457194	0.458776	0.089352
	O3745	O	0.500057	0.208531	0.154529
	O3746	O	0.385418	0.374104	0.167101
	O3747	O	0.505808	0.124769	0.030952
	C3748	C	0.483120	0.213412	0.139378
	C3749	C	0.487442	0.124197	0.143219
	C3750	C	0.483112	0.035313	0.139420
	C3751	C	0.474660	0.035277	0.131919
	C3752	C	0.470340	0.124274	0.128085
	C3753	C	0.474660	0.213399	0.131854
	C3754	C	0.461301	0.124018	0.119807
	C3755	C	0.496497	0.124522	0.151470
	C3756	C	0.434462	0.124621	0.122801
	C3757	C	0.425454	0.124273	0.132735
	C3758	C	0.421067	0.213383	0.137151
	C3759	C	0.412609	0.213166	0.146014
	C3760	C	0.408287	0.124258	0.150656
	C3761	C	0.412691	0.035242	0.146262
	C3762	C	0.421160	0.035152	0.137405
	C3763	C	0.399110	0.124189	0.160067
	C3764	C	0.433998	0.374322	0.088929
	C3765	C	0.424940	0.374606	0.080757
	C3766	C	0.420598	0.463788	0.076987
	C3767	C	0.412146	0.463704	0.069455
	C3768	C	0.407876	0.374444	0.065506
	C3769	C	0.412192	0.285288	0.069351
	C3770	C	0.420629	0.285283	0.076890
	C3771	C	0.398839	0.374459	0.057227
	C3772	C	0.460468	0.374999	0.084987
	C3773	C	0.468827	0.374796	0.073721
	C3774	C	0.472798	0.285804	0.068416
	C3775	C	0.480536	0.285657	0.057986
	C3776	C	0.484499	0.374792	0.052591
	C3777	C	0.480537	0.463602	0.057899
	C3778	C	0.472802	0.463713	0.068335
	C3779	C	0.492861	0.374734	0.041300
	H3780	H	0.483537	0.216845	0.053934
	H3781	H	0.469833	0.216825	0.072544
	H3782	H	0.486382	0.282171	0.142358
	H3783	H	0.471389	0.282312	0.128882
	H3784	H	0.447264	0.125642	0.084734
	H3785	H	0.447950	0.374649	0.123950
	H3786	H	0.385897	0.374021	0.156750
	H3787	H	0.506018	0.124147	0.041199
	H3788	H	0.423881	0.216178	0.079835
	H3789	H	0.408918	0.216081	0.066374
	H3790	H	0.409303	0.282530	0.149387
	H3791	H	0.424278	0.282187	0.133490
	H3792	H	0.408877	0.532842	0.066585
	H3793	H	0.423850	0.532824	0.080057
	H3794	H	0.424439	-0.033632	0.133929
	H3795	H	0.409429	-0.033717	0.149851
	H3796	H	0.471392	-0.033677	0.129059
	H3797	H	0.486330	-0.033487	0.142442
	H3798	H	0.469834	0.532695	0.072362
	H3799	H	0.483522	0.532792	0.053838
	Al3800	Al	0.447404	-0.501054	0.239162
	Al3801	Al	0.447401	-0.249967	0.239235
	Al3802	Al	0.384930	-0.251234	0.176739
	Al3803	Al	0.384904	-0.500295	0.176754
	O3804	O	0.456740	-0.459090	0.252794
	O3805	O	0.447927	-0.375420	0.229667
	O3806	O	0.446465	-0.125411	0.248590
	O3807	O	0.500641	-0.459848	0.287450
	O3808	O	0.435918	-0.460136	0.250379
	O3809	O	0.386747	-0.459493	0.239802
	O3810	O	0.435965	-0.292067	0.250503
	O3811	O	0.438062	-0.210107	0.225141
	O3812	O	0.394235	-0.209727	0.190387
	O3813	O	0.456811	-0.290782	0.252748
	O3814	O	0.457944	-0.208914	0.226136
	O3815	O	0.500508	-0.209303	0.181546
	O3816	O	0.386768	-0.291255	0.239853
	O3817	O	0.438224	-0.041797	0.224748
	O3818	O	0.394285	-0.041453	0.190239
	O3819	O	0.500484	-0.041150	0.181529
	O3820	O	0.458052	-0.040985	0.226344
	O3821	O	0.500575	-0.291970	0.287592
	O3822	O	0.376151	-0.124942	0.240506
	O3823	O	0.510304	-0.375427	0.176192
	C3824	C	0.483227	-0.286065	0.273007
	C3825	C	0.487686	-0.375823	0.276532
	C3826	C	0.483154	-0.465249	0.273076
	C3827	C	0.474370	-0.464967	0.266475
	C3828	C	0.469862	-0.375222	0.263127
	C3829	C	0.474448	-0.285854	0.266398
	C3830	C	0.460467	-0.375053	0.255661
	C3831	C	0.496978	-0.376051	0.284399
	C3832	C	0.431736	-0.375900	0.249887
	C3833	C	0.421152	-0.375743	0.247939
	C3834	C	0.416190	-0.285777	0.246436
	C3835	C	0.406540	-0.285701	0.243508
	C3836	C	0.401567	-0.375545	0.242076
	C3837	C	0.406546	-0.465571	0.243477
	C3838	C	0.416188	-0.465666	0.246408
	C3839	C	0.390966	-0.375439	0.240322
	C3840	C	0.434529	-0.125730	0.221817
	C3841	C	0.425270	-0.125896	0.213924
	C3842	C	0.420809	-0.036171	0.210313
	C3843	C	0.411997	-0.036231	0.203761
	C3844	C	0.407374	-0.125926	0.200650
	C3845	C	0.411893	-0.215633	0.204034
	C3846	C	0.420713	-0.215603	0.210593
	C3847	C	0.397971	-0.125665	0.193188
	C3848	C	0.461641	-0.125125	0.222650
	C3849	C	0.470810	-0.125320	0.213118
	C3850	C	0.475100	-0.214451	0.208484
	C3851	C	0.483564	-0.214467	0.199611
	C3852	C	0.487937	-0.125512	0.195193
	C3853	C	0.483647	-0.036485	0.199804
	C3854	C	0.475193	-0.036464	0.208706
	C3855	C	0.496962	-0.125178	0.185335
	H3856	H	0.486788	-0.283500	0.195997
	H3857	H	0.471802	-0.283593	0.211909
	H3858	H	0.486642	-0.216578	0.275509
	H3859	H	0.471087	-0.216124	0.263735
	H3860	H	0.448463	-0.375343	0.219422
	H3861	H	0.444973	-0.125056	0.258759
	H3862	H	0.377560	-0.124813	0.230297
	H3863	H	0.510337	-0.375707	0.186422
	H3864	H	0.424068	-0.285438	0.213207
	H3865	H	0.408446	-0.285320	0.201574
	H3866	H	0.402829	-0.215570	0.242379
	H3867	H	0.419942	-0.216157	0.247633
	H3868	H	0.408654	0.033414	0.201023
	H3869	H	0.424237	0.033451	0.212676
	H3870	H	0.419895	-0.535862	0.247549
	H3871	H	0.402789	-0.535279	0.242272
	H3872	H	0.470948	-0.534321	0.263968
	H3873	H	0.486529	-0.535083	0.275593
	H3874	H	0.471973	0.032576	0.212267
	H3875	H	0.486959	0.032311	0.196413
	Al3876	Al	0.447400	-0.001051	0.239145
	Al3877	Al	0.447366	0.250014	0.239323
	Al3878	Al	0.384926	0.248699	0.176642
	Al3879	Al	0.384906	-0.000182	0.176702
	O3880	O	0.456715	0.040679	0.252903
	O3881	O	0.447865	0.124695	0.229749
	O3882	O	0.446494	0.374711	0.248727
	O3883	O	0.500576	0.039569	0.287500
	O3884	O	0.435910	0.039721	0.250319
	O3885	O	0.386715	0.040597	0.239959
	O3886	O	0.435926	0.208126	0.250548
	O3887	O	0.438057	0.290094	0.225157
	O3888	O	0.394273	0.289941	0.190306
	O3889	O	0.456740	0.208712	0.252900
	O3890	O	0.457979	0.290503	0.226387
	O3891	O	0.500468	0.290338	0.181512
	O3892	O	0.386777	0.208770	0.240018
	O3893	O	0.438132	0.458219	0.224935
	O3894	O	0.394292	0.457863	0.190297
	O3895	O	0.500459	0.458360	0.181492
	O3896	O	0.458029	0.458175	0.226351
	O3897	O	0.500610	0.207670	0.287465
	O3898	O	0.376237	0.374721	0.240514
	O3899	O	0.510401	0.124791	0.176159
	C3900	C	0.483297	0.213531	0.272907
	C3901	C	0.487753	0.123905	0.276421
	C3902	C	0.483209	0.034367	0.273068
	C3903	C	0.474380	0.034804	0.266487
	C3904	C	0.469876	0.124479	0.263121
	C3905	C	0.474474	0.213994	0.266301
	C3906	C	0.460466	0.124664	0.255707
	C3907	C	0.496982	0.123802	0.284346
	C3908	C	0.431718	0.123948	0.249770
	C3909	C	0.421150	0.124051	0.247871
	C3910	C	0.416191	0.213960	0.246467
	C3911	C	0.406535	0.214185	0.243591
	C3912	C	0.401566	0.124380	0.242076
	C3913	C	0.406526	0.034270	0.243483
	C3914	C	0.416189	0.034079	0.246323
	C3915	C	0.390955	0.124512	0.240475
	C3916	C	0.434466	0.374168	0.221929
	C3917	C	0.425230	0.374017	0.214001
	C3918	C	0.420787	0.463462	0.210368
	C3919	C	0.411985	0.463316	0.203770
	C3920	C	0.407402	0.373713	0.200601
	C3921	C	0.411904	0.284168	0.204040
	C3922	C	0.420706	0.284366	0.210640
	C3923	C	0.397995	0.373874	0.193143
	C3924	C	0.461626	0.374151	0.222770
	C3925	C	0.470763	0.373979	0.213202
	C3926	C	0.475086	0.285132	0.208548
	C3927	C	0.483535	0.285241	0.199634
	C3928	C	0.487911	0.374146	0.195190
	C3929	C	0.483611	0.462960	0.199895
	C3930	C	0.475156	0.462820	0.208803
	C3931	C	0.496901	0.374256	0.185279
	H3932	H	0.486773	0.216196	0.196026
	H3933	H	0.471783	0.216233	0.211939
	H3934	H	0.486711	0.283409	0.275411
	H3935	H	0.471128	0.283789	0.263705
	H3936	H	0.448330	0.125050	0.219418
	H3937	H	0.445084	0.375215	0.258928
	H3938	H	0.377827	0.374291	0.230412
	H3939	H	0.510415	0.124419	0.186385
	H3940	H	0.424036	0.214392	0.213303
	H3941	H	0.408494	0.214183	0.201536
	H3942	H	0.402790	0.284424	0.242547
	H3943	H	0.419915	0.284034	0.247668
	H3944	H	0.408656	0.532971	0.201007
	H3945	H	0.424210	0.533398	0.212781
	H3946	H	0.419923	-0.036175	0.247424
	H3947	H	0.402805	-0.035638	0.242344
	H3948	H	0.470925	-0.035056	0.264057
	H3949	H	0.486522	-0.035851	0.275684
	H3950	H	0.471937	0.531537	0.212397
	H3951	H	0.486901	0.531681	0.196471
	Al3952	Al	0.437461	-0.500320	0.312444
	Al3953	Al	0.437451	-0.250064	0.312426
	Al3954	Al	0.375007	-0.249919	0.249921
	Al3955	Al	0.374990	-0.500378	0.249951
	O3956	O	0.446338	-0.459199	0.327209
	O3957	O	0.438714	-0.375246	0.302897
	O3958	O	0.436247	-0.125056	0.322007
	O3959	O	0.491035	-0.459038	0.360257
	O3960	O	0.425729	-0.459508	0.322544
	O3961	O	0.376497	-0.458718	0.312036
	O3962	O	0.425707	-0.291165	0.322568
	O3963	O	0.428536	-0.208642	0.297778
	O3964	O	0.383836	-0.208956	0.264765
	O3965	O	0.446373	-0.291195	0.327112
	O3966	O	0.449242	-0.208913	0.302266
	O3967	O	0.498405	-0.210171	0.312873
	O3968	O	0.376549	-0.290162	0.312258
	O3969	O	0.428561	-0.040900	0.297716
	O3970	O	0.383846	-0.041013	0.264777
	O3971	O	0.498463	-0.041877	0.313035
	O3972	O	0.449213	-0.040587	0.302323
	O3973	O	0.491004	-0.291076	0.360372
	O3974	O	0.365913	-0.124260	0.313898
	O3975	O	0.509048	-0.375960	0.311121
	C3976	C	0.473155	-0.285509	0.346767
	C3977	C	0.477821	-0.375126	0.349937
	C3978	C	0.473205	-0.464741	0.346667
	C3979	C	0.464198	-0.464827	0.340660
	C3980	C	0.459511	-0.375199	0.337607
	C3981	C	0.464159	-0.285522	0.340745
	C3982	C	0.450041	-0.375179	0.330169
	C3983	C	0.487316	-0.375001	0.357294
	C3984	C	0.421529	-0.375386	0.321995
	C3985	C	0.410914	-0.375154	0.320303
	C3986	C	0.405940	-0.284890	0.318957
	C3987	C	0.396271	-0.284795	0.316076
	C3988	C	0.391320	-0.374771	0.314520
	C3989	C	0.396267	-0.464825	0.316036
	C3990	C	0.405938	-0.464990	0.318923
	C3991	C	0.380726	-0.374552	0.312689
	C3992	C	0.424859	-0.124703	0.294779
	C3993	C	0.415378	-0.125164	0.287328
	C3994	C	0.410741	-0.035462	0.284141
	C3995	C	0.401728	-0.035558	0.278158
	C3996	C	0.397042	-0.125056	0.275136
	C3997	C	0.401702	-0.214867	0.278248
	C3998	C	0.410713	-0.214835	0.284242
	C3999	C	0.387558	-0.124963	0.267707
	C4000	C	0.453426	-0.124546	0.302823
	C4001	C	0.464029	-0.124597	0.304523
	C4002	C	0.468966	-0.214740	0.305956
	C4003	C	0.478636	-0.214914	0.308872
	C4004	C	0.483629	-0.125158	0.310380
	C4005	C	0.478697	-0.034987	0.308896
	C4006	C	0.469023	-0.034670	0.305981
	C4007	C	0.494210	-0.125801	0.312369
	H4008	H	0.482307	-0.285018	0.310019
	H4009	H	0.465244	-0.284778	0.304820
	H4010	H	0.476556	-0.215205	0.349135
	H4011	H	0.460644	-0.215676	0.338550
	H4012	H	0.440597	-0.375572	0.292889
	H4013	H	0.434609	-0.124709	0.332125
	H4014	H	0.367396	-0.123660	0.303759
	H4015	H	0.507563	-0.376350	0.321216
	H4016	H	0.414162	-0.285082	0.286595
	H4017	H	0.398239	-0.284993	0.276016
	H4018	H	0.392534	-0.214451	0.314958
	H4019	H	0.409642	-0.214838	0.320109
	H4020	H	0.398282	0.034795	0.275847
	H4021	H	0.414185	0.034926	0.286405
	H4022	H	0.409680	-0.535213	0.320097
	H4023	H	0.392526	-0.534978	0.314913
	H4024	H	0.460748	-0.535198	0.338452
	H4025	H	0.476666	-0.534958	0.348962
	H4026	H	0.465310	0.035488	0.304825
	H4027	H	0.482432	0.034959	0.310073
	Al4028	Al	0.437450	-0.000071	0.312531
	Al4029	Al	0.437445	0.249615	0.312468
	Al4030	Al	0.374992	0.249806	0.250035
	Al4031	Al	0.374974	-0.000111	0.249977
	O4032	O	0.446296	0.040901	0.327355
	O4033	O	0.438637	0.124969	0.302966
	O4034	O	0.436282	0.374887	0.321980
	O4035	O	0.491041	0.040910	0.360274
	O4036	O	0.425682	0.040821	0.322625
	O4037	O	0.376502	0.041497	0.312088
	O4038	O	0.425690	0.209134	0.322564
	O4039	O	0.428548	0.290612	0.297728
	O4040	O	0.383853	0.291043	0.264819
	O4041	O	0.446382	0.208787	0.327191
	O4042	O	0.449263	0.290747	0.302484
	O4043	O	0.498464	0.289687	0.312744
	O4044	O	0.376519	0.209897	0.312079
	O4045	O	0.428632	0.458664	0.297606
	O4046	O	0.383927	0.458943	0.264731
	O4047	O	0.498476	0.458171	0.312826
	O4048	O	0.449272	0.459035	0.302431
	O4049	O	0.491136	0.208747	0.360171
	O4050	O	0.365955	0.375713	0.313897
	O4051	O	0.509019	0.124321	0.311112
	C4052	C	0.473201	0.214669	0.346747
	C4053	C	0.477882	0.125036	0.349866
	C4054	C	0.473214	0.035256	0.346732
	C4055	C	0.464196	0.034974	0.340772
	C4056	C	0.459524	0.124642	0.337653
	C4057	C	0.464190	0.214391	0.340765
	C4058	C	0.450058	0.124660	0.330240
	C4059	C	0.487367	0.125006	0.357265
	C4060	C	0.421492	0.124890	0.322070
	C4061	C	0.410881	0.124980	0.320376
	C4062	C	0.405929	0.215167	0.318971
	C4063	C	0.396269	0.215384	0.316071
	C4064	C	0.391299	0.125339	0.314587
	C4065	C	0.396239	0.035160	0.316061
	C4066	C	0.405897	0.035046	0.318944
	C4067	C	0.380700	0.125638	0.312665
	C4068	C	0.424862	0.374657	0.294731
	C4069	C	0.415391	0.374884	0.287302
	C4070	C	0.410724	0.464569	0.284206
	C4071	C	0.401727	0.464623	0.278232
	C4072	C	0.397052	0.374919	0.275130
	C4073	C	0.401715	0.285123	0.278232
	C4074	C	0.410713	0.285138	0.284228
	C4075	C	0.387559	0.374798	0.267760
	C4076	C	0.453475	0.374830	0.302982
	C4077	C	0.464091	0.374529	0.304625
	C4078	C	0.469039	0.284552	0.306085
	C4079	C	0.478710	0.284410	0.308915
	C4080	C	0.483693	0.374195	0.310367
	C4081	C	0.478747	0.464292	0.308898
	C4082	C	0.469081	0.464250	0.306051
	C4083	C	0.494276	0.373882	0.312215
	H4084	H	0.482428	0.214564	0.310041
	H4085	H	0.465286	0.214417	0.304992
	H4086	H	0.476645	0.284786	0.349086
	H4087	H	0.460735	0.284612	0.338502
	H4088	H	0.440205	0.124662	0.292823
	H4089	H	0.434766	0.374991	0.332106
	H4090	H	0.367411	0.375604	0.303761
	H4091	H	0.507639	0.124397	0.321312
	H4092	H	0.414187	0.214732	0.286367
	H4093	H	0.398266	0.214772	0.275785
	H4094	H	0.392557	0.285791	0.314924
	H4095	H	0.409713	0.285047	0.320116
	H4096	H	0.398324	0.534916	0.275812
	H4097	H	0.414252	0.534593	0.286404
	H4098	H	0.409585	-0.035256	0.320058
	H4099	H	0.392488	-0.034700	0.314892
	H4100	H	0.460728	-0.035047	0.338494
	H4101	H	0.476674	-0.035184	0.349008
	H4102	H	0.465355	0.534238	0.304962
	H4103	H	0.482467	0.534444	0.310044
	Al4104	Al	0.427535	-0.499366	0.385864
	Al4105	Al	0.427564	-0.250104	0.385743
	Al4106	Al	0.365069	-0.248822	0.323349
	Al4107	Al	0.365069	-0.499946	0.323394
	O4108	O	0.436865	-0.458892	0.400060
	O4109	O	0.428453	-0.375097	0.376324
	O4110	O	0.427076	-0.124600	0.395332
	O4111	O	0.480678	-0.458841	0.434753
	O4112	O	0.416956	-0.458600	0.398718
	O4113	O	0.374588	-0.459268	0.443701
	O4114	O	0.417001	-0.290605	0.398763
	O4115	O	0.418174	-0.208629	0.372236
	O4116	O	0.374365	-0.208200	0.337519
	O4117	O	0.436867	-0.290803	0.399875
	O4118	O	0.439002	-0.208710	0.374426
	O4119	O	0.488181	-0.209179	0.385212
	O4120	O	0.374550	-0.291072	0.443720
	O4121	O	0.418154	-0.040591	0.372312
	O4122	O	0.374372	-0.040426	0.337564
	O4123	O	0.488196	-0.040892	0.385131
	O4124	O	0.439032	-0.040287	0.374522
	O4125	O	0.480682	-0.290676	0.434731
	O4126	O	0.364664	-0.124760	0.448987
	O4127	O	0.498781	-0.375275	0.384548
	C4128	C	0.463023	-0.284796	0.421157
	C4129	C	0.467565	-0.374509	0.424451
	C4130	C	0.463014	-0.464066	0.421125
	C4131	C	0.454217	-0.463942	0.414520
	C4132	C	0.449722	-0.374351	0.411027
	C4133	C	0.454224	-0.284698	0.414552
	C4134	C	0.440461	-0.374529	0.403117
	C4135	C	0.476978	-0.374735	0.431855
	C4136	C	0.413342	-0.374504	0.402373
	C4137	C	0.404160	-0.374690	0.411818
	C4138	C	0.399859	-0.285629	0.416439
	C4139	C	0.391430	-0.285844	0.425407
	C4140	C	0.387093	-0.374838	0.429949
	C4141	C	0.391386	-0.463956	0.425276
	C4142	C	0.399823	-0.463835	0.416328
	C4143	C	0.378097	-0.375129	0.439887
	C4144	C	0.414465	-0.124636	0.369412
	C4145	C	0.405074	-0.124738	0.361978
	C4146	C	0.400576	-0.034953	0.358597
	C4147	C	0.391774	-0.034857	0.351990
	C4148	C	0.387248	-0.124412	0.348528
	C4149	C	0.391735	-0.214150	0.351973
	C4150	C	0.400531	-0.214325	0.358598
	C4151	C	0.377989	-0.124479	0.340659
	C4152	C	0.443216	-0.124557	0.375155
	C4153	C	0.453790	-0.124715	0.377100
	C4154	C	0.458740	-0.214703	0.378541
	C4155	C	0.468407	-0.214851	0.381441
	C4156	C	0.473368	-0.125031	0.382952
	C4157	C	0.468416	-0.035036	0.381462
	C4158	C	0.458758	-0.034863	0.378562
	C4159	C	0.483976	-0.125060	0.384628
	H4160	H	0.472121	-0.285087	0.382530
	H4161	H	0.455041	-0.284656	0.377324
	H4162	H	0.466432	-0.215298	0.423753
	H4163	H	0.450834	-0.214654	0.412010
	H4164	H	0.429896	-0.375210	0.366183
	H4165	H	0.426528	-0.124773	0.405643
	H4166	H	0.364872	-0.124303	0.438743
	H4167	H	0.497186	-0.374920	0.394723
	H4168	H	0.403917	-0.284141	0.361147
	H4169	H	0.388338	-0.284096	0.349391
	H4170	H	0.388209	-0.216724	0.428997
	H4171	H	0.403193	-0.216683	0.413054
	H4172	H	0.388423	0.035227	0.349426
	H4173	H	0.404011	0.034573	0.361124
	H4174	H	0.403065	-0.532748	0.412834
	H4175	H	0.388092	-0.532900	0.428752
	H4176	H	0.450819	-0.533867	0.411980
	H4177	H	0.466409	-0.533968	0.423701
	H4178	H	0.455039	0.035064	0.377336
	H4179	H	0.472149	0.035048	0.382535
	Al4180	Al	0.427577	0.000973	0.385782
	Al4181	Al	0.427592	0.249596	0.385832
	Al4182	Al	0.365046	0.251032	0.323304
	Al4183	Al	0.365075	-0.000060	0.323341
	O4184	O	0.436843	0.041479	0.399964
	O4185	O	0.428415	0.125313	0.376296
	O4186	O	0.427068	0.375003	0.395420
	O4187	O	0.480698	0.041206	0.434788
	O4188	O	0.416983	0.041296	0.398765
	O4189	O	0.374543	0.041074	0.443666
	O4190	O	0.416988	0.209113	0.398828
	O4191	O	0.418162	0.291029	0.372316
	O4192	O	0.374384	0.291597	0.337446
	O4193	O	0.436889	0.209480	0.399929
	O4194	O	0.438991	0.291529	0.374540
	O4195	O	0.488217	0.290439	0.385034
	O4196	O	0.374558	0.209161	0.443673
	O4197	O	0.418135	0.459331	0.372336
	O4198	O	0.374304	0.459709	0.337618
	O4199	O	0.488213	0.458899	0.385062
	O4200	O	0.439045	0.459847	0.374716
	O4201	O	0.480672	0.209333	0.434794
	O4202	O	0.364637	0.375481	0.448972
	O4203	O	0.498799	0.124898	0.384482
	C4204	C	0.463035	0.214837	0.421194
	C4205	C	0.467616	0.125294	0.424382
	C4206	C	0.463078	0.035801	0.420993
	C4207	C	0.454284	0.035686	0.414393
	C4208	C	0.449758	0.125307	0.410977
	C4209	C	0.454241	0.214810	0.414580
	C4210	C	0.440486	0.125371	0.403061
	C4211	C	0.476987	0.125165	0.431876
	C4212	C	0.413352	0.125282	0.402396
	C4213	C	0.404154	0.125248	0.411843
	C4214	C	0.399842	0.214340	0.416429
	C4215	C	0.391397	0.214469	0.425374
	C4216	C	0.387067	0.125283	0.429884
	C4217	C	0.391358	0.036268	0.425230
	C4218	C	0.399806	0.036247	0.416302
	C4219	C	0.378066	0.125030	0.439856
	C4220	C	0.414449	0.375100	0.369461
	C4221	C	0.405067	0.375319	0.361918
	C4222	C	0.400548	0.464907	0.358574
	C4223	C	0.391756	0.465008	0.351972
	C4224	C	0.387224	0.375447	0.348539
	C4225	C	0.391737	0.285804	0.351922
	C4226	C	0.400532	0.285824	0.358538
	C4227	C	0.377943	0.375695	0.340668
	C4228	C	0.443224	0.375500	0.375281
	C4229	C	0.453815	0.375263	0.377163
	C4230	C	0.458773	0.285199	0.378620
	C4231	C	0.468429	0.285044	0.381469
	C4232	C	0.473419	0.374954	0.382917
	C4233	C	0.468466	0.465008	0.381482
	C4234	C	0.458802	0.465162	0.378649
	C4235	C	0.484019	0.374609	0.384563
	H4236	H	0.472174	0.214769	0.382487
	H4237	H	0.455049	0.215355	0.377375
	H4238	H	0.466399	0.284612	0.423837
	H4239	H	0.450835	0.284261	0.412098
	H4240	H	0.429672	0.124926	0.366150
	H4241	H	0.426562	0.374629	0.405712
	H4242	H	0.364645	0.375649	0.438709
	H4243	H	0.497289	0.125346	0.394541
	H4244	H	0.403927	0.216043	0.361066
	H4245	H	0.388368	0.215974	0.349320
	H4246	H	0.388155	0.283500	0.428935
	H4247	H	0.403139	0.283261	0.413005
	H4248	H	0.388394	0.534917	0.349396
	H4249	H	0.403969	0.534871	0.361101
	H4250	H	0.403078	-0.032732	0.412818
	H4251	H	0.388075	-0.032760	0.428666
	H4252	H	0.450908	-0.034225	0.411791
	H4253	H	0.466489	-0.033831	0.423519
	H4254	H	0.455071	0.535036	0.377456
	H4255	H	0.472216	0.534828	0.382504
	Al4256	Al	0.427333	-0.499654	0.520851
	Al4257	Al	0.427311	-0.249744	0.520783
	Al4258	Al	0.364799	-0.249714	0.458357
	Al4259	Al	0.364809	-0.499411	0.458371
	O4260	O	0.437440	-0.459041	0.533129
	O4261	O	0.427157	-0.374899	0.511458
	O4262	O	0.427539	-0.124733	0.530198
	O4263	O	0.479790	-0.458882	0.570941
	O4264	O	0.417801	-0.459060	0.535853
	O4265	O	0.378912	-0.458904	0.588212
	O4266	O	0.417788	-0.290939	0.535835
	O4267	O	0.417295	-0.208665	0.508378
	O4268	O	0.374930	-0.208723	0.470559
	O4269	O	0.437449	-0.290902	0.533103
	O4270	O	0.437086	-0.208640	0.506145
	O4271	O	0.479468	-0.208284	0.461210
	O4272	O	0.378939	-0.290827	0.588301
	O4273	O	0.417274	-0.040521	0.508474
	O4274	O	0.374919	-0.040615	0.470557
	O4275	O	0.479499	-0.040443	0.461227
	O4276	O	0.437065	-0.040325	0.506182
	O4277	O	0.479817	-0.290939	0.570949
	O4278	O	0.369248	-0.124958	0.594189
	O4279	O	0.489579	-0.374417	0.457902
	C4280	C	0.462838	-0.285535	0.555725
	C4281	C	0.467152	-0.374462	0.559585
	C4282	C	0.462821	-0.463520	0.555794
	C4283	C	0.454382	-0.463483	0.548265
	C4284	C	0.450064	-0.374557	0.544414
	C4285	C	0.454391	-0.285415	0.548199
	C4286	C	0.440999	-0.374831	0.536235
	C4287	C	0.476205	-0.374647	0.567823
	C4288	C	0.414472	-0.375078	0.540164
	C4289	C	0.406142	-0.374951	0.551462
	C4290	C	0.402219	-0.285751	0.556840
	C4291	C	0.394504	-0.285887	0.567311
	C4292	C	0.390521	-0.374912	0.572598
	C4293	C	0.394427	-0.464041	0.567194
	C4294	C	0.402146	-0.463907	0.556749
	C4295	C	0.382197	-0.375020	0.583902
	C4296	C	0.413729	-0.124545	0.505267
	C4297	C	0.404652	-0.124443	0.497066
	C4298	C	0.400318	-0.035572	0.493239
	C4299	C	0.391856	-0.035659	0.485731
	C4300	C	0.387546	-0.124524	0.481889
	C4301	C	0.391880	-0.213331	0.485713
	C4302	C	0.400341	-0.213369	0.493208
	C4303	C	0.378490	-0.124550	0.473667
	C4304	C	0.440639	-0.124608	0.502378
	C4305	C	0.449633	-0.124302	0.492477
	C4306	C	0.453974	-0.213310	0.487956
	C4307	C	0.462418	-0.213256	0.478993
	C4308	C	0.466716	-0.124131	0.474410
	C4309	C	0.462349	-0.034999	0.478854
	C4310	C	0.453908	-0.035152	0.487828
	C4311	C	0.475870	-0.124312	0.464839
	H4312	H	0.465697	-0.282337	0.475580
	H4313	H	0.450758	-0.282230	0.491532
	H4314	H	0.466141	-0.216580	0.558710
	H4315	H	0.451150	-0.216474	0.545201
	H4316	H	0.427058	-0.375555	0.501147
	H4317	H	0.428063	-0.125086	0.540458
	H4318	H	0.369078	-0.124773	0.583899
	H4319	H	0.489172	-0.374132	0.468234
	H4320	H	0.403607	-0.282319	0.496153
	H4321	H	0.388635	-0.282114	0.482715
	H4322	H	0.391522	-0.217153	0.571360
	H4323	H	0.405222	-0.216868	0.552768
	H4324	H	0.388578	0.033089	0.482716
	H4325	H	0.403626	0.032970	0.496183
	H4326	H	0.405112	-0.532801	0.552649
	H4327	H	0.391386	-0.532840	0.571197
	H4328	H	0.451110	-0.532463	0.545307
	H4329	H	0.466073	-0.532641	0.558795
	H4330	H	0.450667	0.033983	0.491314
	H4331	H	0.465573	0.034237	0.475247
	Al4332	Al	0.427315	0.000365	0.520810
	Al4333	Al	0.427285	0.250441	0.520788
	Al4334	Al	0.364825	0.250177	0.458362
	Al4335	Al	0.364768	0.000315	0.458361
	O4336	O	0.437402	0.041238	0.533126
	O4337	O	0.427139	0.125390	0.511411
	O4338	O	0.427514	0.375243	0.530173
	O4339	O	0.479737	0.041185	0.571039
	O4340	O	0.417833	0.041275	0.535857
	O4341	O	0.378828	0.041371	0.588184
	O4342	O	0.417781	0.209032	0.535850
	O4343	O	0.417239	0.291543	0.508484
	O4344	O	0.374958	0.291481	0.470518
	O4345	O	0.437386	0.209368	0.533046
	O4346	O	0.437030	0.291418	0.506105
	O4347	O	0.479512	0.291523	0.461313
	O4348	O	0.378889	0.209201	0.588256
	O4349	O	0.417233	0.459596	0.508535
	O4350	O	0.374892	0.459501	0.470660
	O4351	O	0.479477	0.459326	0.461270
	O4352	O	0.437022	0.459621	0.506056
	O4353	O	0.479776	0.209387	0.570896
	O4354	O	0.369176	0.374997	0.594236
	O4355	O	0.489604	0.125343	0.457885
	C4356	C	0.462831	0.214039	0.555690
	C4357	C	0.467155	0.125126	0.559493
	C4358	C	0.462817	0.036288	0.555695
	C4359	C	0.454352	0.036058	0.548200
	C4360	C	0.450049	0.125152	0.544368
	C4361	C	0.454368	0.214051	0.548180
	C4362	C	0.440973	0.125391	0.536182
	C4363	C	0.476195	0.125158	0.567818
	C4364	C	0.414522	0.125101	0.540168
	C4365	C	0.406195	0.124902	0.551474
	C4366	C	0.402229	0.213849	0.556833
	C4367	C	0.394486	0.213922	0.567273
	C4368	C	0.390497	0.125083	0.572590
	C4369	C	0.394480	0.036184	0.567282
	C4370	C	0.402219	0.036077	0.556846
	C4371	C	0.382154	0.125373	0.583892
	C4372	C	0.413678	0.375651	0.505359
	C4373	C	0.404638	0.375523	0.497087
	C4374	C	0.400285	0.464562	0.493311
	C4375	C	0.391844	0.464363	0.485760
	C4376	C	0.387574	0.375191	0.481850
	C4377	C	0.391947	0.285976	0.485531
	C4378	C	0.400398	0.286193	0.493115
	C4379	C	0.378508	0.375364	0.473700
	C4380	C	0.440554	0.375588	0.502271
	C4381	C	0.449534	0.375725	0.492352
	C4382	C	0.453889	0.286609	0.487864
	C4383	C	0.462331	0.286563	0.478956
	C4384	C	0.466676	0.375423	0.474359
	C4385	C	0.462296	0.464478	0.478809
	C4386	C	0.453859	0.464723	0.487749
	C4387	C	0.475862	0.375393	0.464906
	H4388	H	0.465643	0.217766	0.475550
	H4389	H	0.450651	0.217636	0.491435
	H4390	H	0.466076	0.283092	0.558632
	H4391	H	0.451090	0.282921	0.545218
	H4392	H	0.427156	0.125228	0.501107
	H4393	H	0.427809	0.374944	0.540460
	H4394	H	0.368830	0.375036	0.583995
	H4395	H	0.489101	0.125256	0.468296
	H4396	H	0.403752	0.217237	0.495979
	H4397	H	0.388738	0.216650	0.482499
	H4398	H	0.391522	0.282959	0.571365
	H4399	H	0.405184	0.282758	0.552811
	H4400	H	0.388545	0.533328	0.482896
	H4401	H	0.403496	0.533812	0.496296
	H4402	H	0.405215	-0.033072	0.552769
	H4403	H	0.391484	-0.033123	0.571367
	H4404	H	0.451053	-0.032842	0.545339
	H4405	H	0.466065	-0.032486	0.558723
	H4406	H	0.450594	0.533551	0.491217
	H4407	H	0.465554	0.533218	0.475316
	Al4408	Al	0.432023	-0.499858	0.665994
	Al4409	Al	0.432020	-0.249864	0.666029
	Al4410	Al	0.369528	-0.249990	0.603565
	Al4411	Al	0.369574	-0.499959	0.603562
	O4412	O	0.442240	-0.458892	0.678108
	O4413	O	0.431678	-0.375056	0.656686
	O4414	O	0.432402	-0.125066	0.675330
	O4415	O	0.484301	-0.459075	0.716434
	O4416	O	0.422693	-0.459152	0.681330
	O4417	O	0.384268	-0.459280	0.734569
	O4418	O	0.422728	-0.290992	0.681335
	O4419	O	0.421810	-0.208614	0.653974
	O4420	O	0.379719	-0.208552	0.615560
	O4421	O	0.442222	-0.290746	0.678006
	O4422	O	0.441385	-0.209130	0.650712
	O4423	O	0.480340	-0.208616	0.598386
	O4424	O	0.384320	-0.291181	0.734661
	O4425	O	0.421832	-0.040487	0.653895
	O4426	O	0.379757	-0.040422	0.615494
	O4427	O	0.480342	-0.040774	0.598410
	O4428	O	0.441362	-0.040972	0.650690
	O4429	O	0.484338	-0.290686	0.716445
	O4430	O	0.374700	-0.125161	0.740718
	O4431	O	0.490042	-0.374907	0.592715
	C4432	C	0.467530	-0.285277	0.700941
	C4433	C	0.471779	-0.374598	0.704922
	C4434	C	0.467462	-0.463689	0.701143
	C4435	C	0.459081	-0.463727	0.693474
	C4436	C	0.454820	-0.374625	0.689496
	C4437	C	0.459136	-0.285377	0.693254
	C4438	C	0.445798	-0.374606	0.681189
	C4439	C	0.480780	-0.374675	0.713252
	C4440	C	0.419456	-0.374966	0.685732
	C4441	C	0.411257	-0.374977	0.697256
	C4442	C	0.407332	-0.285904	0.702681
	C4443	C	0.399704	-0.285966	0.713308
	C4444	C	0.395782	-0.375077	0.718763
	C4445	C	0.399726	-0.464166	0.713368
	C4446	C	0.407359	-0.464138	0.702727
	C4447	C	0.387540	-0.375268	0.730222
	C4448	C	0.418273	-0.124611	0.650753
	C4449	C	0.409247	-0.124558	0.642467
	C4450	C	0.404920	-0.035572	0.638666
	C4451	C	0.396544	-0.035488	0.630985
	C4452	C	0.392290	-0.124544	0.626998
	C4453	C	0.396591	-0.213616	0.630850
	C4454	C	0.404979	-0.213724	0.638520
	C4455	C	0.383294	-0.124502	0.618649
	C4456	C	0.444633	-0.124978	0.646309
	C4457	C	0.452943	-0.124717	0.634962
	C4458	C	0.456922	-0.213668	0.629654
	C4459	C	0.464691	-0.213564	0.619267
	C4460	C	0.468658	-0.124643	0.613936
	C4461	C	0.464694	-0.035671	0.619289
	C4462	C	0.456925	-0.035565	0.629686
	C4463	C	0.477025	-0.124739	0.602699
	H4464	H	0.467663	-0.282385	0.615205
	H4465	H	0.453946	-0.282818	0.633706
	H4466	H	0.470828	-0.216284	0.703838
	H4467	H	0.455886	-0.216298	0.690104
	H4468	H	0.431371	-0.374202	0.646438
	H4469	H	0.432878	-0.124760	0.685516
	H4470	H	0.374312	-0.125343	0.730522
	H4471	H	0.490484	-0.375266	0.602952
	H4472	H	0.408270	-0.282689	0.641432
	H4473	H	0.393345	-0.282604	0.627743
	H4474	H	0.396755	-0.216704	0.717434
	H4475	H	0.410287	-0.216886	0.698544
	H4476	H	0.393273	0.033045	0.628010
	H4477	H	0.408152	0.033485	0.641716
	H4478	H	0.410325	-0.533353	0.698597
	H4479	H	0.396812	-0.533247	0.717537
	H4480	H	0.455831	-0.532890	0.690513
	H4481	H	0.470688	-0.532745	0.704182
	H4482	H	0.453933	0.033448	0.633758
	H4483	H	0.467681	0.033040	0.615250
	Al4484	Al	0.432032	0.000059	0.665992
	Al4485	Al	0.432040	0.250336	0.665997
	Al4486	Al	0.369505	0.249930	0.603553
	Al4487	Al	0.369503	0.000051	0.603553
	O4488	O	0.442301	0.040798	0.677929
	O4489	O	0.431689	0.125471	0.656694
	O4490	O	0.432374	0.375286	0.675278
	O4491	O	0.484341	0.040946	0.716390
	O4492	O	0.422744	0.041050	0.681328
	O4493	O	0.384301	0.041147	0.734623
	O4494	O	0.422792	0.209193	0.681335
	O4495	O	0.421820	0.290836	0.654001
	O4496	O	0.379717	0.291107	0.615551
	O4497	O	0.442263	0.208725	0.677994
	O4498	O	0.441418	0.291446	0.650695
	O4499	O	0.480273	0.291315	0.598289
	O4500	O	0.384299	0.209176	0.734643
	O4501	O	0.421830	0.459251	0.653961
	O4502	O	0.379753	0.459518	0.615623
	O4503	O	0.480323	0.459450	0.598338
	O4504	O	0.441361	0.459363	0.650665
	O4505	O	0.484383	0.209150	0.716438
	O4506	O	0.374633	0.374668	0.740718
	O4507	O	0.490049	0.125263	0.592685
	C4508	C	0.467558	0.214040	0.700923
	C4509	C	0.471803	0.125167	0.704937
	C4510	C	0.467493	0.036189	0.701072
	C4511	C	0.459109	0.036090	0.693399
	C4512	C	0.454845	0.125054	0.689456
	C4513	C	0.459180	0.214039	0.693247
	C4514	C	0.445834	0.124883	0.681143
	C4515	C	0.480804	0.125143	0.713307
	C4516	C	0.419519	0.125190	0.685760
	C4517	C	0.411297	0.125140	0.697278
	C4518	C	0.407336	0.214023	0.702662
	C4519	C	0.399690	0.214069	0.713269
	C4520	C	0.395786	0.125182	0.718760
	C4521	C	0.399717	0.036219	0.713336
	C4522	C	0.407348	0.036274	0.702728
	C4523	C	0.387563	0.125146	0.730236
	C4524	C	0.418286	0.374931	0.650824
	C4525	C	0.409282	0.374828	0.642502
	C4526	C	0.404981	0.464148	0.638669
	C4527	C	0.396596	0.464204	0.630986
	C4528	C	0.392328	0.375014	0.627012
	C4529	C	0.396623	0.285708	0.630858
	C4530	C	0.405011	0.285697	0.638545
	C4531	C	0.383284	0.375063	0.618741
	C4532	C	0.444678	0.375602	0.646339
	C4533	C	0.452995	0.375513	0.635016
	C4534	C	0.456962	0.286299	0.629702
	C4535	C	0.464702	0.286192	0.619246
	C4536	C	0.468679	0.375407	0.613969
	C4537	C	0.464731	0.464618	0.619309
	C4538	C	0.456985	0.464724	0.629730
	C4539	C	0.477022	0.375486	0.602657
	H4540	H	0.467710	0.217216	0.615242
	H4541	H	0.453994	0.217217	0.633799
	H4542	H	0.470828	0.282902	0.703917
	H4543	H	0.455964	0.282920	0.690152
	H4544	H	0.431292	0.125903	0.646432
	H4545	H	0.432699	0.375788	0.685611
	H4546	H	0.374352	0.374444	0.730448
	H4547	H	0.490406	0.125446	0.602956
	H4548	H	0.408242	0.216567	0.641522
	H4549	H	0.393366	0.217011	0.627823
	H4550	H	0.396724	0.282867	0.717366
	H4551	H	0.410294	0.283246	0.698475
	H4552	H	0.393322	0.533256	0.628090
	H4553	H	0.408219	0.532917	0.641786
	H4554	H	0.410289	-0.032721	0.698588
	H4555	H	0.396773	-0.032774	0.717499
	H4556	H	0.455819	-0.032742	0.690404
	H4557	H	0.470705	-0.032256	0.704189
	H4558	H	0.454048	0.533977	0.633796
	H4559	H	0.467747	0.533813	0.615263
	Al4560	Al	0.437562	-0.500409	0.812482
	Al4561	Al	0.437569	-0.250323	0.812625
	Al4562	Al	0.375050	-0.250019	0.750037
	Al4563	Al	0.375006	-0.500232	0.750006
	O4564	O	0.447794	-0.459207	0.824507
	O4565	O	0.437201	-0.375178	0.803260
	O4566	O	0.437916	-0.125259	0.821884
	O4567	O	0.489808	-0.459154	0.863074
	O4568	O	0.428283	-0.458949	0.827944
	O4569	O	0.389824	-0.458884	0.881170
	O4570	O	0.428236	-0.290723	0.827919
	O4571	O	0.427347	-0.209339	0.800637
	O4572	O	0.385311	-0.209275	0.761934
	O4573	O	0.447788	-0.290960	0.824605
	O4574	O	0.446859	-0.209516	0.797137
	O4575	O	0.485214	-0.209023	0.743798
	O4576	O	0.389755	-0.290671	0.881073
	O4577	O	0.427350	-0.041264	0.800520
	O4578	O	0.385318	-0.041069	0.761932
	O4579	O	0.485249	-0.041201	0.743820
	O4580	O	0.446853	-0.041409	0.797136
	O4581	O	0.489806	-0.291060	0.863150
	O4582	O	0.380134	-0.125102	0.887148
	O4583	O	0.494868	-0.374641	0.737763
	C4584	C	0.472995	-0.286030	0.847665
	C4585	C	0.477300	-0.374905	0.851528
	C4586	C	0.473036	-0.464065	0.847571
	C4587	C	0.464660	-0.464388	0.839903
	C4588	C	0.460353	-0.375313	0.836035
	C4589	C	0.464619	-0.286084	0.839982
	C4590	C	0.451341	-0.375238	0.827721
	C4591	C	0.486268	-0.375117	0.859928
	C4592	C	0.425004	-0.374977	0.832360
	C4593	C	0.416774	-0.374790	0.843825
	C4594	C	0.412741	-0.285696	0.849076
	C4595	C	0.405098	-0.285730	0.859660
	C4596	C	0.401289	-0.374861	0.865298
	C4597	C	0.405305	-0.463930	0.860033
	C4598	C	0.412941	-0.463960	0.849442
	C4599	C	0.393067	-0.374802	0.876741
	C4600	C	0.423806	-0.125402	0.797421
	C4601	C	0.414792	-0.125481	0.789058
	C4602	C	0.410474	-0.036254	0.785226
	C4603	C	0.402110	-0.036085	0.777496
	C4604	C	0.397856	-0.125233	0.773481
	C4605	C	0.402163	-0.214483	0.777315
	C4606	C	0.410529	-0.214475	0.785040
	C4607	C	0.388880	-0.125150	0.765061
	C4608	C	0.450113	-0.125443	0.792718
	C4609	C	0.458313	-0.125424	0.781202
	C4610	C	0.462239	-0.214423	0.775815
	C4611	C	0.469847	-0.214188	0.765166
	C4612	C	0.473756	-0.125000	0.759736
	C4613	C	0.469853	-0.036077	0.765160
	C4614	C	0.462240	-0.036446	0.775808
	C4615	C	0.481949	-0.124983	0.748182
	H4616	H	0.472776	-0.283106	0.760955
	H4617	H	0.459298	-0.283773	0.779974
	H4618	H	0.476214	-0.217195	0.850755
	H4619	H	0.461383	-0.217161	0.836991
	H4620	H	0.436722	-0.374696	0.793008
	H4621	H	0.438289	-0.124775	0.832095
	H4622	H	0.379735	-0.124592	0.876820
	H4623	H	0.495247	-0.375119	0.748047
	H4624	H	0.413819	-0.283399	0.787935
	H4625	H	0.398968	-0.283294	0.774174
	H4626	H	0.402043	-0.216841	0.863699
	H4627	H	0.415622	-0.216502	0.844808
	H4628	H	0.398877	0.032909	0.774488
	H4629	H	0.413725	0.032533	0.788328
	H4630	H	0.416008	-0.533031	0.845428
	H4631	H	0.402433	-0.532950	0.864331
	H4632	H	0.461396	-0.533427	0.836884
	H4633	H	0.476282	-0.532932	0.850617
	H4634	H	0.459321	0.032454	0.779998
	H4635	H	0.472747	0.033129	0.760980
	Al4636	Al	0.437549	-0.000391	0.812513
	Al4637	Al	0.437546	0.249626	0.812531
	Al4638	Al	0.375016	0.249766	0.750037
	Al4639	Al	0.375057	-0.000141	0.750007
	O4640	O	0.447786	0.041196	0.824397
	O4641	O	0.437182	0.124822	0.803176
	O4642	O	0.437858	0.374615	0.821821
	O4643	O	0.489785	0.041191	0.863073
	O4644	O	0.428249	0.040583	0.827907
	O4645	O	0.389840	0.040281	0.881133
	O4646	O	0.428221	0.208698	0.827807
	O4647	O	0.427336	0.290891	0.800417
	O4648	O	0.385245	0.290902	0.761945
	O4649	O	0.447759	0.209473	0.824553
	O4650	O	0.446871	0.290841	0.797133
	O4651	O	0.485273	0.291040	0.743868
	O4652	O	0.389787	0.208776	0.881071
	O4653	O	0.427341	0.458991	0.800515
	O4654	O	0.385273	0.459159	0.761905
	O4655	O	0.485223	0.458975	0.743756
	O4656	O	0.446869	0.458764	0.797130
	O4657	O	0.489777	0.209463	0.863167
	O4658	O	0.380198	0.374839	0.887182
	O4659	O	0.494903	0.125049	0.737769
	C4660	C	0.472961	0.214382	0.847662
	C4661	C	0.477246	0.125244	0.851553
	C4662	C	0.472971	0.036038	0.847617
	C4663	C	0.464592	0.036047	0.839919
	C4664	C	0.460305	0.125123	0.836023
	C4665	C	0.464593	0.214394	0.839926
	C4666	C	0.451326	0.125209	0.827622
	C4667	C	0.486224	0.125252	0.859939
	C4668	C	0.425013	0.124611	0.832299
	C4669	C	0.416800	0.124618	0.843845
	C4670	C	0.412812	0.213679	0.849150
	C4671	C	0.405180	0.213840	0.859735
	C4672	C	0.401339	0.124645	0.865268
	C4673	C	0.405259	0.035451	0.859868
	C4674	C	0.412886	0.035414	0.849275
	C4675	C	0.393084	0.124619	0.876750
	C4676	C	0.423770	0.375073	0.797337
	C4677	C	0.414774	0.375034	0.788950
	C4678	C	0.410453	0.464058	0.785117
	C4679	C	0.402065	0.464233	0.777447
	C4680	C	0.397802	0.375148	0.773477
	C4681	C	0.402109	0.286185	0.777355
	C4682	C	0.410492	0.285912	0.785044
	C4683	C	0.388795	0.375085	0.765118
	C4684	C	0.450124	0.374735	0.792756
	C4685	C	0.458327	0.374963	0.781214
	C4686	C	0.462251	0.286006	0.775797
	C4687	C	0.469869	0.286211	0.765164
	C4688	C	0.473786	0.375156	0.759720
	C4689	C	0.469821	0.464130	0.765076
	C4690	C	0.462200	0.464119	0.775711
	C4691	C	0.481989	0.375107	0.748195
	H4692	H	0.472795	0.217003	0.760980
	H4693	H	0.459336	0.216795	0.779980
	H4694	H	0.476214	0.282960	0.850648
	H4695	H	0.461336	0.283145	0.836920
	H4696	H	0.436966	0.125479	0.792893
	H4697	H	0.438306	0.374931	0.832096
	H4698	H	0.379895	0.375296	0.876951
	H4699	H	0.495302	0.124629	0.747993
	H4700	H	0.413724	0.216966	0.788043
	H4701	H	0.398838	0.217113	0.774391
	H4702	H	0.402170	0.282826	0.863786
	H4703	H	0.415748	0.282597	0.844940
	H4704	H	0.398762	0.533450	0.774538
	H4705	H	0.413659	0.533082	0.788223
	H4706	H	0.415866	-0.033648	0.845156
	H4707	H	0.402285	-0.033406	0.864025
	H4708	H	0.461356	-0.032853	0.836868
	H4709	H	0.476225	-0.032966	0.850630
	H4710	H	0.459238	0.532972	0.779872
	H4711	H	0.472703	0.533182	0.760831
	Al4712	Al	0.443009	-0.500070	0.959150
	Al4713	Al	0.442979	-0.250242	0.959084
	Al4714	Al	0.380528	-0.250180	0.896459
	Al4715	Al	0.380500	-0.500170	0.896505
	O4716	O	0.453227	-0.459126	0.971134
	O4717	O	0.442682	-0.375131	0.949818
	O4718	O	0.443304	-0.125466	0.968430
	O4719	O	0.495230	-0.459124	1.009589
	O4720	O	0.433671	-0.459154	0.974449
	O4721	O	0.394696	-0.459159	1.026748
	O4722	O	0.433620	-0.291214	0.974391
	O4723	O	0.432774	-0.209421	0.947061
	O4724	O	0.390706	-0.209879	0.908531
	O4725	O	0.453164	-0.290922	0.971217
	O4726	O	0.452334	-0.209422	0.943742
	O4727	O	0.490752	-0.209058	0.890544
	O4728	O	0.394662	-0.291127	1.026716
	O4729	O	0.432708	-0.041245	0.947091
	O4730	O	0.390721	-0.041744	0.908501
	O4731	O	0.490744	-0.040988	0.890504
	O4732	O	0.452288	-0.041149	0.943698
	O4733	O	0.495244	-0.291213	1.009658
	O4734	O	0.384952	-0.125338	1.032442
	O4735	O	0.500352	-0.375085	0.884402
	C4736	C	0.478370	-0.285895	0.994359
	C4737	C	0.482717	-0.374891	0.998074
	C4738	C	0.478451	-0.463971	0.994132
	C4739	C	0.470049	-0.464063	0.986475
	C4740	C	0.465762	-0.374973	0.982634
	C4741	C	0.469978	-0.285984	0.986713
	C4742	C	0.456754	-0.374916	0.974327
	C4743	C	0.491691	-0.375079	1.006480
	C4744	C	0.430317	-0.375158	0.978701
	C4745	C	0.422014	-0.375276	0.990044
	C4746	C	0.418044	-0.286350	0.995384
	C4747	C	0.410320	-0.286219	1.005835
	C4748	C	0.406316	-0.375127	1.011143
	C4749	C	0.410333	-0.464178	1.005893
	C4750	C	0.418074	-0.464259	0.995452
	C4751	C	0.397983	-0.375154	1.022418
	C4752	C	0.429183	-0.125506	0.943895
	C4753	C	0.420181	-0.125706	0.935562
	C4754	C	0.415881	-0.036558	0.931767
	C4755	C	0.407505	-0.036651	0.924054
	C4756	C	0.403247	-0.125717	0.920039
	C4757	C	0.407525	-0.214828	0.923903
	C4758	C	0.415909	-0.214824	0.931611
	C4759	C	0.394249	-0.125821	0.911676
	C4760	C	0.455556	-0.125211	0.939351
	C4761	C	0.463800	-0.125226	0.927855
	C4762	C	0.467707	-0.214468	0.922439
	C4763	C	0.475343	-0.214499	0.911811
	C4764	C	0.479264	-0.125278	0.906413
	C4765	C	0.475359	-0.036293	0.911826
	C4766	C	0.467717	-0.036199	0.922440
	C4767	C	0.487476	-0.125155	0.894921
	H4768	H	0.478285	-0.283635	0.907663
	H4769	H	0.464743	-0.283359	0.926548
	H4770	H	0.481530	-0.217149	0.997601
	H4771	H	0.466667	-0.217055	0.983906
	H4772	H	0.442275	-0.375418	0.939511
	H4773	H	0.443609	-0.125263	0.978649
	H4774	H	0.384621	-0.125142	1.022205
	H4775	H	0.500482	-0.374724	0.894687
	H4776	H	0.419156	-0.283562	0.934616
	H4777	H	0.404293	-0.283651	0.920805
	H4778	H	0.407307	-0.217367	1.009872
	H4779	H	0.421037	-0.217458	0.991312
	H4780	H	0.404253	0.032293	0.921039
	H4781	H	0.419097	0.032249	0.934852
	H4782	H	0.421090	-0.533139	0.991452
	H4783	H	0.407362	-0.533076	1.010019
	H4784	H	0.466798	-0.532700	0.983417
	H4785	H	0.481711	-0.532897	0.997126
	H4786	H	0.464750	0.032924	0.926554
	H4787	H	0.478300	0.032727	0.907683
	Al4788	Al	0.442989	-0.000283	0.959054
	Al4789	Al	0.442974	0.249689	0.959075
	Al4790	Al	0.380509	0.249799	0.896483
	Al4791	Al	0.380531	-0.000149	0.896522
	O4792	O	0.453179	0.040296	0.971094
	O4793	O	0.442644	0.124728	0.949699
	O4794	O	0.443318	0.374794	0.968446
	O4795	O	0.495240	0.040506	1.009632
	O4796	O	0.433634	0.040802	0.974397
	O4797	O	0.394721	0.040302	1.026795
	O4798	O	0.433605	0.208841	0.974408
	O4799	O	0.432783	0.290905	0.947109
	O4800	O	0.390772	0.290873	0.908470
	O4801	O	0.453166	0.208617	0.971104
	O4802	O	0.452260	0.290940	0.943717
	O4803	O	0.490756	0.290821	0.890623
	O4804	O	0.394656	0.208584	1.026614
	O4805	O	0.432759	0.459053	0.947112
	O4806	O	0.390731	0.459219	0.908548
	O4807	O	0.490734	0.458941	0.890486
	O4808	O	0.452287	0.458913	0.943735
	O4809	O	0.495211	0.208700	1.009683
	O4810	O	0.384988	0.374814	1.032345
	O4811	O	0.500369	0.124897	0.884429
	C4812	C	0.478382	0.213717	0.994301
	C4813	C	0.482687	0.124420	0.998120
	C4814	C	0.478433	0.035343	0.994168
	C4815	C	0.470051	0.035379	0.986486
	C4816	C	0.465716	0.124413	0.982660
	C4817	C	0.469993	0.213464	0.986604
	C4818	C	0.456721	0.124584	0.974258
	C4819	C	0.491687	0.124508	1.006488
	C4820	C	0.430346	0.124694	0.978769
	C4821	C	0.422022	0.124401	0.990167
	C4822	C	0.418042	0.213480	0.995456
	C4823	C	0.410302	0.213399	1.005881
	C4824	C	0.406370	0.124359	1.011174
	C4825	C	0.410343	0.035256	1.005912
	C4826	C	0.418094	0.035334	0.995482
	C4827	C	0.398016	0.124356	1.022451
	C4828	C	0.429203	0.375013	0.944006
	C4829	C	0.420194	0.374905	0.935643
	C4830	C	0.415914	0.464018	0.931770
	C4831	C	0.407545	0.463800	0.924065
	C4832	C	0.403272	0.374914	0.920106
	C4833	C	0.407570	0.285694	0.923898
	C4834	C	0.415945	0.285850	0.931610
	C4835	C	0.394289	0.374948	0.911706
	C4836	C	0.455536	0.374919	0.939337
	C4837	C	0.463748	0.374908	0.927823
	C4838	C	0.467677	0.286098	0.922421
	C4839	C	0.475334	0.285937	0.911836
	C4840	C	0.479240	0.374991	0.906402
	C4841	C	0.475298	0.464017	0.911761
	C4842	C	0.467644	0.464032	0.922344
	C4843	C	0.487497	0.374887	0.894944
	H4844	H	0.478303	0.216957	0.907712
	H4845	H	0.464758	0.216931	0.926576
	H4846	H	0.481604	0.282430	0.997401
	H4847	H	0.466719	0.282095	0.983555
	H4848	H	0.442276	0.124662	0.939530
	H4849	H	0.443504	0.375226	0.978640
	H4850	H	0.384645	0.375146	1.022072
	H4851	H	0.500659	0.124626	0.894685
	H4852	H	0.419189	0.217106	0.934586
	H4853	H	0.404340	0.216887	0.920784
	H4854	H	0.407313	0.282632	1.009912
	H4855	H	0.421034	0.282445	0.991351
	H4856	H	0.404295	0.532704	0.921077
	H4857	H	0.419144	0.532843	0.934901
	H4858	H	0.421043	-0.033623	0.991432
	H4859	H	0.407402	-0.033954	1.010061
	H4860	H	0.466870	-0.033545	0.983360
	H4861	H	0.481696	-0.033622	0.997108
	H4862	H	0.464694	0.532946	0.926497
	H4863	H	0.478247	0.532914	0.907567
	Al4864	Al	0.567945	-0.500060	0.084072
	Al4865	Al	0.567934	-0.250221	0.084095
	Al4866	Al	0.505454	-0.250205	0.021622
	Al4867	Al	0.505493	-0.500312	0.021615
	O4868	O	0.578185	-0.459618	0.096120
	O4869	O	0.567629	-0.375284	0.074740
	O4870	O	0.568324	-0.125064	0.093394
	O4871	O	0.620251	-0.459422	0.134505
	O4872	O	0.558645	-0.459087	0.099429
	O4873	O	0.519673	-0.459374	0.151786
	O4874	O	0.558616	-0.291020	0.099414
	O4875	O	0.557767	-0.209133	0.071963
	O4876	O	0.515689	-0.209305	0.033658
	O4877	O	0.578106	-0.291197	0.096161
	O4878	O	0.577303	-0.209319	0.068817
	O4879	O	0.615745	-0.208864	0.015472
	O4880	O	0.519684	-0.291227	0.151802
	O4881	O	0.557794	-0.040989	0.072052
	O4882	O	0.515708	-0.041088	0.033522
	O4883	O	0.615762	-0.040937	0.015569
	O4884	O	0.577276	-0.041337	0.068669
	O4885	O	0.620257	-0.291043	0.134556
	O4886	O	0.510018	-0.125147	0.157444
	O4887	O	0.625294	-0.375045	0.009431
	C4888	C	0.603374	-0.285778	0.119225
	C4889	C	0.607706	-0.374972	0.123009
	C4890	C	0.603435	-0.464234	0.119052
	C4891	C	0.595034	-0.464084	0.111388
	C4892	C	0.590706	-0.374890	0.107604
	C4893	C	0.594970	-0.285612	0.111548
	C4894	C	0.581700	-0.375225	0.099250
	C4895	C	0.616712	-0.375139	0.131382
	C4896	C	0.555331	-0.375154	0.103777
	C4897	C	0.547026	-0.375248	0.115112
	C4898	C	0.543012	-0.286549	0.120404
	C4899	C	0.535260	-0.286636	0.130815
	C4900	C	0.531309	-0.375467	0.136172
	C4901	C	0.535343	-0.464227	0.130913
	C4902	C	0.543090	-0.464121	0.120490
	C4903	C	0.522981	-0.375149	0.147464
	C4904	C	0.554233	-0.125024	0.068863
	C4905	C	0.545206	-0.124761	0.060544
	C4906	C	0.540896	-0.035764	0.056683
	C4907	C	0.532514	-0.035941	0.049015
	C4908	C	0.528253	-0.125006	0.045076
	C4909	C	0.532526	-0.214019	0.049052
	C4910	C	0.540901	-0.213940	0.056712
	C4911	C	0.519264	-0.125084	0.036733
	C4912	C	0.580551	-0.125403	0.064338
	C4913	C	0.588738	-0.125449	0.052808
	C4914	C	0.592702	-0.214198	0.047401
	C4915	C	0.600336	-0.214211	0.036802
	C4916	C	0.604244	-0.125141	0.031372
	C4917	C	0.600296	-0.036363	0.036773
	C4918	C	0.592655	-0.036384	0.047370
	C4919	C	0.612470	-0.124962	0.019900
	H4920	H	0.603320	-0.282862	0.032657
	H4921	H	0.589784	-0.283147	0.051591
	H4922	H	0.606597	-0.216831	0.122351
	H4923	H	0.591715	-0.216611	0.108592
	H4924	H	0.567426	-0.375557	0.064448
	H4925	H	0.568741	-0.124772	0.103617
	H4926	H	0.509633	-0.125184	0.147183
	H4927	H	0.625486	-0.374787	0.019691
	H4928	H	0.544162	-0.282815	0.059794
	H4929	H	0.529280	-0.283016	0.046074
	H4930	H	0.532233	-0.217771	0.134838
	H4931	H	0.545990	-0.217712	0.116293
	H4932	H	0.529245	0.032770	0.046042
	H4933	H	0.544113	0.033180	0.059723
	H4934	H	0.546126	-0.533096	0.116483
	H4935	H	0.532396	-0.532953	0.135027
	H4936	H	0.591802	-0.533119	0.108290
	H4937	H	0.606702	-0.533137	0.121973
	H4938	H	0.589706	0.032466	0.051545
	H4939	H	0.603235	0.032613	0.032654
	Al4940	Al	0.567986	-0.000210	0.084052
	Al4941	Al	0.567982	0.249970	0.084094
	Al4942	Al	0.505444	0.249582	0.021621
	Al4943	Al	0.505489	-0.000461	0.021625
	O4944	O	0.578157	0.040651	0.096152
	O4945	O	0.567670	0.125090	0.074785
	O4946	O	0.568278	0.374995	0.093413
	O4947	O	0.620255	0.040477	0.134685
	O4948	O	0.558582	0.040441	0.099325
	O4949	O	0.519677	0.040794	0.151714
	O4950	O	0.558654	0.208545	0.099372
	O4951	O	0.557761	0.290793	0.072104
	O4952	O	0.515707	0.290385	0.033572
	O4953	O	0.578156	0.208963	0.096214
	O4954	O	0.577322	0.291089	0.068717
	O4955	O	0.615752	0.291063	0.015522
	O4956	O	0.519702	0.208796	0.151743
	O4957	O	0.557801	0.458851	0.071946
	O4958	O	0.515662	0.458799	0.033732
	O4959	O	0.615691	0.459185	0.015382
	O4960	O	0.577309	0.459152	0.068804
	O4961	O	0.620277	0.208858	0.134623
	O4962	O	0.509983	0.374830	0.157389
	O4963	O	0.625391	0.124872	0.009318
	C4964	C	0.603428	0.213727	0.119191
	C4965	C	0.607717	0.124466	0.123094
	C4966	C	0.603392	0.035309	0.119236
	C4967	C	0.595004	0.035576	0.111572
	C4968	C	0.590734	0.124843	0.107632
	C4969	C	0.595049	0.213902	0.111495
	C4970	C	0.581721	0.124785	0.099304
	C4971	C	0.616718	0.124517	0.131516
	C4972	C	0.555342	0.124408	0.103693
	C4973	C	0.547018	0.124710	0.115021
	C4974	C	0.543074	0.213665	0.120387
	C4975	C	0.535346	0.213801	0.130857
	C4976	C	0.531343	0.124687	0.136155
	C4977	C	0.535327	0.035789	0.130870
	C4978	C	0.543062	0.035768	0.120404
	C4979	C	0.523000	0.124743	0.147413
	C4980	C	0.554234	0.374680	0.068864
	C4981	C	0.545213	0.374543	0.060569
	C4982	C	0.540943	0.463552	0.056593
	C4983	C	0.532561	0.463749	0.048938
	C4984	C	0.528245	0.374567	0.045118
	C4985	C	0.532489	0.285386	0.049136
	C4986	C	0.540879	0.285394	0.056782
	C4987	C	0.519240	0.374640	0.036816
	C4988	C	0.580564	0.374947	0.064390
	C4989	C	0.588785	0.375455	0.052861
	C4990	C	0.592702	0.286377	0.047447
	C4991	C	0.600332	0.286536	0.036812
	C4992	C	0.604255	0.375370	0.031384
	C4993	C	0.600313	0.464342	0.036764
	C4994	C	0.592681	0.464358	0.047378
	C4995	C	0.612436	0.375201	0.019848
	H4996	H	0.603242	0.217643	0.032641
	H4997	H	0.589731	0.217468	0.051613
	H4998	H	0.606697	0.282724	0.122249
	H4999	H	0.591809	0.282842	0.108500
	H5000	H	0.567310	0.124807	0.064537
	H5001	H	0.568723	0.375393	0.103625
	H5002	H	0.509887	0.374865	0.147137
	H5003	H	0.625870	0.124714	0.019567
	H5004	H	0.544106	0.216506	0.059903
	H5005	H	0.529200	0.216408	0.046186
	H5006	H	0.532387	0.282762	0.134952
	H5007	H	0.546056	0.282875	0.116361
	H5008	H	0.529349	0.532559	0.045850
	H5009	H	0.544255	0.532310	0.059574
	H5010	H	0.546070	-0.033224	0.116381
	H5011	H	0.532372	-0.033424	0.134992
	H5012	H	0.591728	-0.033236	0.108620
	H5013	H	0.606623	-0.033773	0.122331
	H5014	H	0.589717	0.533423	0.051454
	H5015	H	0.603221	0.533305	0.032533
	Al5016	Al	0.572664	-0.500274	0.229347
	Al5017	Al	0.572729	-0.250616	0.229215
	Al5018	Al	0.510200	-0.250311	0.166826
	Al5019	Al	0.510173	-0.500159	0.166772
	O5020	O	0.582696	-0.459459	0.241710
	O5021	O	0.572537	-0.375489	0.219858
	O5022	O	0.572813	-0.125520	0.238545
	O5023	O	0.625076	-0.459574	0.279453
	O5024	O	0.562964	-0.458967	0.244028
	O5025	O	0.520515	-0.459359	0.288756
	O5026	O	0.563030	-0.290976	0.244024
	O5027	O	0.562654	-0.209993	0.216850
	O5028	O	0.520281	-0.209484	0.179112
	O5029	O	0.582773	-0.291125	0.241569
	O5030	O	0.582206	-0.209781	0.214134
	O5031	O	0.621189	-0.209400	0.161849
	O5032	O	0.520420	-0.291288	0.288621
	O5033	O	0.562660	-0.041606	0.216802
	O5034	O	0.520273	-0.040978	0.179114
	O5035	O	0.621203	-0.041128	0.161894
	O5036	O	0.582226	-0.041797	0.214211
	O5037	O	0.625024	-0.291095	0.279483
	O5038	O	0.510421	-0.125839	0.292158
	O5039	O	0.630827	-0.375536	0.155831
	C5040	C	0.608088	-0.286058	0.264359
	C5041	C	0.612416	-0.375217	0.268145
	C5042	C	0.608104	-0.464216	0.264343
	C5043	C	0.599652	-0.464555	0.256840
	C5044	C	0.595329	-0.375350	0.253028
	C5045	C	0.599648	-0.286200	0.256821
	C5046	C	0.586297	-0.375120	0.244755
	C5047	C	0.621468	-0.375266	0.276351
	C5048	C	0.559449	-0.374622	0.247814
	C5049	C	0.550427	-0.374885	0.257692
	C5050	C	0.546080	-0.285874	0.262227
	C5051	C	0.537624	-0.285894	0.271113
	C5052	C	0.533283	-0.374916	0.275628
	C5053	C	0.537641	-0.463833	0.271095
	C5054	C	0.546094	-0.463927	0.262216
	C5055	C	0.524086	-0.375129	0.285062
	C5056	C	0.559075	-0.125701	0.213794
	C5057	C	0.549925	-0.125680	0.205776
	C5058	C	0.545619	-0.036110	0.201968
	C5059	C	0.537161	-0.036186	0.194469
	C5060	C	0.532845	-0.125462	0.190640
	C5061	C	0.537184	-0.214955	0.194391
	C5062	C	0.545626	-0.214930	0.201903
	C5063	C	0.523807	-0.125320	0.182317
	C5064	C	0.585533	-0.125624	0.209843
	C5065	C	0.593870	-0.125471	0.198539
	C5066	C	0.597821	-0.214627	0.193147
	C5067	C	0.605564	-0.214534	0.182746
	C5068	C	0.609579	-0.125483	0.177477
	C5069	C	0.605616	-0.036465	0.182829
	C5070	C	0.597870	-0.036344	0.193242
	C5071	C	0.617927	-0.125356	0.166209
	H5072	H	0.608556	-0.283640	0.178639
	H5073	H	0.594806	-0.283810	0.197171
	H5074	H	0.611363	-0.217193	0.267290
	H5075	H	0.596411	-0.217369	0.253809
	H5076	H	0.572367	-0.375698	0.209587
	H5077	H	0.572674	-0.125871	0.248899
	H5078	H	0.510908	-0.126202	0.281813
	H5079	H	0.631219	-0.375612	0.166013
	H5080	H	0.548945	-0.284233	0.204747
	H5081	H	0.533934	-0.284030	0.191359
	H5082	H	0.534314	-0.216744	0.274571
	H5083	H	0.549381	-0.216861	0.258798
	H5084	H	0.533891	0.032843	0.191501
	H5085	H	0.548943	0.032960	0.204866
	H5086	H	0.549369	-0.532768	0.258694
	H5087	H	0.534342	-0.533025	0.274472
	H5088	H	0.596366	-0.533348	0.253847
	H5089	H	0.611379	-0.533025	0.267313
	H5090	H	0.594892	0.032613	0.197344
	H5091	H	0.608652	0.032449	0.178832
	Al5092	Al	0.572685	-0.000565	0.229191
	Al5093	Al	0.572703	0.249446	0.229250
	Al5094	Al	0.510199	0.249853	0.166748
	Al5095	Al	0.510220	-0.000332	0.166827
	O5096	O	0.582767	0.040055	0.241499
	O5097	O	0.572511	0.124575	0.219839
	O5098	O	0.572819	0.374572	0.238666
	O5099	O	0.625002	0.040264	0.279581
	O5100	O	0.562959	0.040439	0.243901
	O5101	O	0.520500	0.040094	0.288724
	O5102	O	0.562994	0.208471	0.243962
	O5103	O	0.562602	0.290306	0.217005
	O5104	O	0.520272	0.290646	0.179066
	O5105	O	0.582740	0.208564	0.241610
	O5106	O	0.582192	0.290476	0.214261
	O5107	O	0.621096	0.290504	0.161868
	O5108	O	0.520489	0.207839	0.288694
	O5109	O	0.562575	0.458550	0.217030
	O5110	O	0.520271	0.458865	0.179008
	O5111	O	0.621121	0.458606	0.161947
	O5112	O	0.582183	0.458512	0.214350
	O5113	O	0.625066	0.208841	0.279453
	O5114	O	0.510434	0.374135	0.292037
	O5115	O	0.630851	0.124587	0.155943
	C5116	C	0.608115	0.213603	0.264313
	C5117	C	0.612411	0.124543	0.268183
	C5118	C	0.608092	0.035368	0.264409
	C5119	C	0.599667	0.035501	0.256844
	C5120	C	0.595363	0.124497	0.252973
	C5121	C	0.599682	0.213693	0.256745
	C5122	C	0.586333	0.124509	0.244685
	C5123	C	0.621474	0.124613	0.276431
	C5124	C	0.559452	0.124531	0.247770
	C5125	C	0.550455	0.124500	0.257670
	C5126	C	0.546120	0.213175	0.262223
	C5127	C	0.537651	0.212874	0.271099
	C5128	C	0.533306	0.124023	0.275634
	C5129	C	0.537659	0.035266	0.271145
	C5130	C	0.546140	0.035612	0.262258
	C5131	C	0.524135	0.123932	0.285112
	C5132	C	0.559037	0.374734	0.213869
	C5133	C	0.549949	0.374593	0.205687
	C5134	C	0.545646	0.463761	0.201838
	C5135	C	0.537212	0.463948	0.194298
	C5136	C	0.532894	0.374918	0.190434
	C5137	C	0.537177	0.285649	0.194359
	C5138	C	0.545609	0.285630	0.201914
	C5139	C	0.523825	0.375024	0.182180
	C5140	C	0.585489	0.374644	0.209976
	C5141	C	0.593843	0.374445	0.198693
	C5142	C	0.597756	0.285452	0.193255
	C5143	C	0.605497	0.285505	0.182838
	C5144	C	0.609493	0.374521	0.177589
	C5145	C	0.605573	0.463417	0.182988
	C5146	C	0.597839	0.463500	0.193406
	C5147	C	0.617826	0.374448	0.166240
	H5148	H	0.608474	0.216643	0.178710
	H5149	H	0.594730	0.216509	0.197264
	H5150	H	0.611394	0.282451	0.267253
	H5151	H	0.596427	0.282384	0.253723
	H5152	H	0.572205	0.124479	0.209547
	H5153	H	0.573042	0.374456	0.248873
	H5154	H	0.510796	0.374453	0.281721
	H5155	H	0.631159	0.124051	0.166236
	H5156	H	0.548893	0.216651	0.204919
	H5157	H	0.533881	0.216805	0.191427
	H5158	H	0.534392	0.281778	0.274573
	H5159	H	0.549351	0.282248	0.258734
	H5160	H	0.533953	0.533058	0.191318
	H5161	H	0.548927	0.532980	0.204786
	H5162	H	0.549389	-0.033357	0.258754
	H5163	H	0.534418	-0.033602	0.274648
	H5164	H	0.596399	-0.033404	0.253890
	H5165	H	0.611347	-0.033301	0.267459
	H5166	H	0.594881	0.532288	0.197483
	H5167	H	0.608588	0.532537	0.178955
	Al5168	Al	0.572349	-0.501329	0.364317
	Al5169	Al	0.572412	-0.250362	0.364092
	Al5170	Al	0.509872	-0.251302	0.301665
	Al5171	Al	0.509939	-0.500485	0.301634
	O5172	O	0.581797	-0.459943	0.377764
	O5173	O	0.572888	-0.376090	0.354570
	O5174	O	0.571468	-0.125877	0.373501
	O5175	O	0.625678	-0.459633	0.412463
	O5176	O	0.560916	-0.459555	0.375513
	O5177	O	0.511716	-0.458920	0.364850
	O5178	O	0.560913	-0.291259	0.375322
	O5179	O	0.563132	-0.209573	0.349865
	O5180	O	0.519309	-0.209901	0.315290
	O5181	O	0.581829	-0.291816	0.377554
	O5182	O	0.582962	-0.209935	0.351080
	O5183	O	0.625518	-0.209891	0.306491
	O5184	O	0.511735	-0.290829	0.364975
	O5185	O	0.563157	-0.041456	0.349871
	O5186	O	0.519281	-0.041746	0.315273
	O5187	O	0.625534	-0.041911	0.306523
	O5188	O	0.583003	-0.041897	0.351195
	O5189	O	0.625611	-0.291413	0.412568
	O5190	O	0.501099	-0.125119	0.365517
	O5191	O	0.635358	-0.375473	0.301064
	C5192	C	0.608269	-0.285856	0.397937
	C5193	C	0.612727	-0.375524	0.401545
	C5194	C	0.608197	-0.465130	0.398157
	C5195	C	0.599409	-0.465264	0.391551
	C5196	C	0.594893	-0.375625	0.388125
	C5197	C	0.599477	-0.286117	0.391315
	C5198	C	0.585516	-0.375730	0.380569
	C5199	C	0.622019	-0.375747	0.409424
	C5200	C	0.556719	-0.375368	0.374778
	C5201	C	0.546154	-0.375335	0.372835
	C5202	C	0.541206	-0.285301	0.371329
	C5203	C	0.531545	-0.285199	0.368463
	C5204	C	0.526551	-0.374971	0.367040
	C5205	C	0.531498	-0.465004	0.368508
	C5206	C	0.541184	-0.465231	0.371395
	C5207	C	0.515940	-0.374903	0.365420
	C5208	C	0.559515	-0.125530	0.346817
	C5209	C	0.550251	-0.125412	0.338911
	C5210	C	0.545764	-0.035768	0.335352
	C5211	C	0.536961	-0.035726	0.328804
	C5212	C	0.532378	-0.125678	0.325634
	C5213	C	0.536907	-0.215257	0.329040
	C5214	C	0.545703	-0.215331	0.335559
	C5215	C	0.522969	-0.125829	0.318155
	C5216	C	0.586617	-0.125899	0.347548
	C5217	C	0.595819	-0.125903	0.338133
	C5218	C	0.600161	-0.214880	0.333605
	C5219	C	0.608625	-0.214713	0.324746
	C5220	C	0.612988	-0.125735	0.320246
	C5221	C	0.608655	-0.036715	0.324807
	C5222	C	0.600185	-0.036936	0.333669
	C5223	C	0.621984	-0.126002	0.310302
	H5224	H	0.611880	-0.283743	0.321177
	H5225	H	0.596854	-0.284156	0.337024
	H5226	H	0.611668	-0.215931	0.400402
	H5227	H	0.596108	-0.216319	0.388570
	H5228	H	0.573406	-0.376350	0.344222
	H5229	H	0.569865	-0.125712	0.383577
	H5230	H	0.502685	-0.124890	0.355430
	H5231	H	0.635376	-0.376100	0.311347
	H5232	H	0.549030	-0.285215	0.338190
	H5233	H	0.533434	-0.285096	0.326564
	H5234	H	0.527832	-0.214996	0.367366
	H5235	H	0.544902	-0.215178	0.372429
	H5236	H	0.533572	0.033792	0.326135
	H5237	H	0.549188	0.033882	0.337907
	H5238	H	0.544911	-0.535214	0.372514
	H5239	H	0.527772	-0.535068	0.367382
	H5240	H	0.596039	-0.535109	0.389053
	H5241	H	0.611591	-0.535077	0.400753
	H5242	H	0.596896	0.031767	0.337150
	H5243	H	0.611919	0.032206	0.321342
	Al5244	Al	0.572446	-0.001416	0.364099
	Al5245	Al	0.572369	0.249651	0.364268
	Al5246	Al	0.509913	0.248442	0.301572
	Al5247	Al	0.509897	-0.000411	0.301690
	O5248	O	0.581833	0.039645	0.377653
	O5249	O	0.572936	0.124270	0.354629
	O5250	O	0.571507	0.374019	0.373764
	O5251	O	0.625563	0.040246	0.412612
	O5252	O	0.560919	0.039580	0.375300
	O5253	O	0.511763	0.040486	0.364973
	O5254	O	0.560962	0.207929	0.375504
	O5255	O	0.563106	0.290758	0.350042
	O5256	O	0.519295	0.290253	0.315206
	O5257	O	0.581791	0.207781	0.377728
	O5258	O	0.582966	0.290090	0.351329
	O5259	O	0.625379	0.290514	0.306459
	O5260	O	0.511785	0.208942	0.364883
	O5261	O	0.563015	0.458672	0.350248
	O5262	O	0.519247	0.458421	0.315275
	O5263	O	0.625409	0.458621	0.306402
	O5264	O	0.582986	0.458185	0.351403
	O5265	O	0.625564	0.208446	0.412719
	O5266	O	0.501123	0.374769	0.365448
	O5267	O	0.635352	0.124486	0.301074
	C5268	C	0.608225	0.213868	0.397999
	C5269	C	0.612724	0.124323	0.401543
	C5270	C	0.608240	0.034441	0.398062
	C5271	C	0.599475	0.034286	0.391401
	C5272	C	0.594924	0.123921	0.388018
	C5273	C	0.599445	0.213715	0.391359
	C5274	C	0.585504	0.123743	0.380591
	C5275	C	0.621966	0.124372	0.409511
	C5276	C	0.556745	0.123865	0.374820
	C5277	C	0.546151	0.124286	0.372948
	C5278	C	0.541213	0.214419	0.371447
	C5279	C	0.531551	0.214659	0.368562
	C5280	C	0.526576	0.124719	0.367130
	C5281	C	0.531545	0.034695	0.368478
	C5282	C	0.541200	0.034548	0.371350
	C5283	C	0.515984	0.124767	0.365496
	C5284	C	0.559469	0.374612	0.346976
	C5285	C	0.550225	0.374793	0.338992
	C5286	C	0.545769	0.464534	0.335357
	C5287	C	0.536970	0.464418	0.328722
	C5288	C	0.532400	0.374738	0.325518
	C5289	C	0.536886	0.285000	0.328997
	C5290	C	0.545693	0.285138	0.335604
	C5291	C	0.522987	0.374405	0.318080
	C5292	C	0.586606	0.374183	0.347749
	C5293	C	0.595771	0.374515	0.338226
	C5294	C	0.600113	0.285483	0.333660
	C5295	C	0.608549	0.285533	0.324729
	C5296	C	0.612850	0.374775	0.320165
	C5297	C	0.608553	0.463936	0.324791
	C5298	C	0.600110	0.463718	0.333732
	C5299	C	0.621857	0.374803	0.310210
	H5300	H	0.611760	0.216693	0.321163
	H5301	H	0.596858	0.216370	0.337150
	H5302	H	0.611634	0.283721	0.400544
	H5303	H	0.596068	0.283317	0.388758
	H5304	H	0.573599	0.124550	0.344334
	H5305	H	0.570220	0.373571	0.383877
	H5306	H	0.502655	0.375044	0.355311
	H5307	H	0.635491	0.123634	0.311341
	H5308	H	0.549071	0.215492	0.338250
	H5309	H	0.533528	0.215127	0.326494
	H5310	H	0.527828	0.284941	0.367441
	H5311	H	0.545009	0.284129	0.372588
	H5312	H	0.533605	0.534246	0.325981
	H5313	H	0.549156	0.534650	0.337794
	H5314	H	0.544920	-0.035866	0.372412
	H5315	H	0.527826	-0.035330	0.367316
	H5316	H	0.596059	-0.035574	0.388828
	H5317	H	0.611622	-0.035551	0.400608
	H5318	H	0.596884	0.532679	0.337248
	H5319	H	0.611832	0.532694	0.321302
	Al5320	Al	0.562512	-0.499936	0.437513
	Al5321	Al	0.562487	-0.250102	0.437452
	Al5322	Al	0.499946	-0.250015	0.375046
	Al5323	Al	0.499947	-0.500124	0.374982
	O5324	O	0.571382	-0.458785	0.452258
	O5325	O	0.563634	-0.375213	0.427951
	O5326	O	0.561316	-0.125282	0.447006
	O5327	O	0.616034	-0.459147	0.485320
	O5328	O	0.550693	-0.459226	0.447505
	O5329	O	0.501536	-0.459207	0.437167
	O5330	O	0.550720	-0.291113	0.447563
	O5331	O	0.553537	-0.209145	0.422805
	O5332	O	0.508813	-0.209186	0.389822
	O5333	O	0.571379	-0.290839	0.452190
	O5334	O	0.574226	-0.209017	0.427339
	O5335	O	0.623453	-0.209777	0.437974
	O5336	O	0.501514	-0.290820	0.437061
	O5337	O	0.553569	-0.041285	0.422791
	O5338	O	0.508864	-0.041039	0.389764
	O5339	O	0.623429	-0.041424	0.437995
	O5340	O	0.574312	-0.040575	0.427459
	O5341	O	0.616041	-0.291122	0.485360
	O5342	O	0.490980	-0.124698	0.438819
	O5343	O	0.634036	-0.375773	0.436224
	C5344	C	0.598215	-0.285495	0.471768
	C5345	C	0.602865	-0.375220	0.474921
	C5346	C	0.598182	-0.464688	0.471800
	C5347	C	0.589176	-0.464582	0.465807
	C5348	C	0.584552	-0.374777	0.462623
	C5349	C	0.589209	-0.285273	0.465776
	C5350	C	0.575072	-0.374699	0.455223
	C5351	C	0.612346	-0.375084	0.482345
	C5352	C	0.546504	-0.374996	0.446996
	C5353	C	0.535911	-0.374747	0.445336
	C5354	C	0.530939	-0.284817	0.443914
	C5355	C	0.521277	-0.285034	0.441038
	C5356	C	0.516314	-0.375002	0.439571
	C5357	C	0.521258	-0.464992	0.441126
	C5358	C	0.530924	-0.464786	0.444004
	C5359	C	0.505724	-0.374895	0.437694
	C5360	C	0.549840	-0.125242	0.419838
	C5361	C	0.540360	-0.125382	0.412418
	C5362	C	0.535738	-0.035731	0.409154
	C5363	C	0.526733	-0.035686	0.403181
	C5364	C	0.522052	-0.125340	0.400102
	C5365	C	0.526688	-0.215113	0.403301
	C5366	C	0.535695	-0.215103	0.409281
	C5367	C	0.512534	-0.125257	0.392782
	C5368	C	0.578473	-0.125117	0.427991
	C5369	C	0.589087	-0.125478	0.429615
	C5370	C	0.594034	-0.215552	0.431027
	C5371	C	0.603687	-0.215798	0.433904
	C5372	C	0.608655	-0.125994	0.435467
	C5373	C	0.603723	-0.035867	0.433990
	C5374	C	0.594071	-0.035739	0.431106
	C5375	C	0.619225	-0.125674	0.437383
	H5376	H	0.607431	-0.285843	0.434921
	H5377	H	0.590309	-0.285744	0.429784
	H5378	H	0.601670	-0.215433	0.474012
	H5379	H	0.585736	-0.215106	0.463479
	H5380	H	0.565024	-0.375387	0.417809
	H5381	H	0.559715	-0.124816	0.457131
	H5382	H	0.492473	-0.125041	0.428720
	H5383	H	0.632713	-0.375944	0.446411
	H5384	H	0.539176	-0.285227	0.411566
	H5385	H	0.523235	-0.285375	0.401083
	H5386	H	0.517561	-0.214778	0.439885
	H5387	H	0.534680	-0.214896	0.445023
	H5388	H	0.523303	0.034637	0.400799
	H5389	H	0.539213	0.034779	0.411363
	H5390	H	0.534647	-0.535013	0.445130
	H5391	H	0.517521	-0.534987	0.440037
	H5392	H	0.585697	-0.534707	0.463532
	H5393	H	0.601631	-0.534757	0.474092
	H5394	H	0.590358	0.034407	0.429928
	H5395	H	0.607452	0.034258	0.435107
	Al5396	Al	0.562505	-0.000192	0.437491
	Al5397	Al	0.562477	0.249786	0.437514
	Al5398	Al	0.500011	0.249885	0.374965
	Al5399	Al	0.499946	-0.000146	0.375031
	O5400	O	0.571345	0.040952	0.452331
	O5401	O	0.563651	0.124614	0.428009
	O5402	O	0.561293	0.374799	0.447052
	O5403	O	0.616093	0.040587	0.485179
	O5404	O	0.550690	0.040563	0.447615
	O5405	O	0.501518	0.041092	0.437047
	O5406	O	0.550697	0.208793	0.447580
	O5407	O	0.553568	0.290711	0.422793
	O5408	O	0.508916	0.290771	0.389742
	O5409	O	0.571391	0.208871	0.452269
	O5410	O	0.574236	0.290829	0.427347
	O5411	O	0.623458	0.290367	0.437917
	O5412	O	0.501537	0.209528	0.437048
	O5413	O	0.553592	0.458583	0.422764
	O5414	O	0.508908	0.458757	0.389672
	O5415	O	0.623458	0.458750	0.437895
	O5416	O	0.574285	0.459267	0.427455
	O5417	O	0.616082	0.208398	0.485245
	O5418	O	0.490905	0.375704	0.438879
	O5419	O	0.633997	0.124565	0.436263
	C5420	C	0.598250	0.214368	0.471754
	C5421	C	0.602914	0.124644	0.474858
	C5422	C	0.598230	0.034944	0.471789
	C5423	C	0.589223	0.035042	0.465830
	C5424	C	0.584550	0.124726	0.462699
	C5425	C	0.589243	0.214394	0.465771
	C5426	C	0.575082	0.124853	0.455236
	C5427	C	0.612377	0.124606	0.482273
	C5428	C	0.546497	0.124665	0.447061
	C5429	C	0.535877	0.124745	0.445453
	C5430	C	0.530925	0.214747	0.444141
	C5431	C	0.521266	0.214844	0.441242
	C5432	C	0.516320	0.125069	0.439597
	C5433	C	0.521269	0.035024	0.441046
	C5434	C	0.530927	0.034966	0.443964
	C5435	C	0.505717	0.125280	0.437652
	C5436	C	0.549868	0.374772	0.419805
	C5437	C	0.540375	0.374797	0.412428
	C5438	C	0.535730	0.464506	0.409263
	C5439	C	0.526727	0.464633	0.403257
	C5440	C	0.522059	0.375002	0.400174
	C5441	C	0.526722	0.285314	0.403277
	C5442	C	0.535728	0.285142	0.409272
	C5443	C	0.512622	0.374827	0.392662
	C5444	C	0.578445	0.374947	0.427949
	C5445	C	0.589059	0.374617	0.429649
	C5446	C	0.594013	0.284537	0.431071
	C5447	C	0.603683	0.284266	0.433947
	C5448	C	0.608657	0.374238	0.435467
	C5449	C	0.603720	0.464215	0.433931
	C5450	C	0.594055	0.464520	0.431046
	C5451	C	0.619246	0.374474	0.437360
	H5452	H	0.607377	0.214189	0.435061
	H5453	H	0.590251	0.214556	0.429919
	H5454	H	0.601714	0.284478	0.474051
	H5455	H	0.585819	0.284792	0.463457
	H5456	H	0.565284	0.124685	0.417886
	H5457	H	0.559690	0.374699	0.457166
	H5458	H	0.492369	0.375678	0.428784
	H5459	H	0.632524	0.124459	0.446354
	H5460	H	0.539149	0.214627	0.411591
	H5461	H	0.523209	0.215267	0.401052
	H5462	H	0.517520	0.284751	0.440206
	H5463	H	0.534617	0.284780	0.445398
	H5464	H	0.523284	0.535079	0.401034
	H5465	H	0.539194	0.534585	0.411612
	H5466	H	0.534652	-0.034962	0.445095
	H5467	H	0.517554	-0.035179	0.439886
	H5468	H	0.585728	-0.035249	0.463560
	H5469	H	0.601663	-0.035412	0.474108
	H5470	H	0.590365	0.534762	0.429879
	H5471	H	0.607465	0.534208	0.435047
	Al5472	Al	0.552561	-0.498888	0.510789
	Al5473	Al	0.552589	-0.249812	0.510766
	Al5474	Al	0.490086	-0.249113	0.448320
	Al5475	Al	0.490057	-0.500136	0.448376
	O5476	O	0.561851	-0.458522	0.524996
	O5477	O	0.553440	-0.374367	0.501247
	O5478	O	0.552086	-0.124636	0.520353
	O5479	O	0.605687	-0.458709	0.559721
	O5480	O	0.541990	-0.458420	0.523714
	O5481	O	0.499547	-0.458636	0.568648
	O5482	O	0.542038	-0.290429	0.523765
	O5483	O	0.543188	-0.208160	0.497182
	O5484	O	0.499373	-0.208411	0.462475
	O5485	O	0.561935	-0.290726	0.524878
	O5486	O	0.564046	-0.208137	0.499555
	O5487	O	0.613174	-0.209214	0.510188
	O5488	O	0.499575	-0.290428	0.568660
	O5489	O	0.543164	-0.040018	0.497240
	O5490	O	0.499375	-0.040250	0.462540
	O5491	O	0.613227	-0.040885	0.510154
	O5492	O	0.564061	-0.039993	0.499675
	O5493	O	0.605733	-0.290647	0.559547
	O5494	O	0.489710	-0.124626	0.573935
	O5495	O	0.623808	-0.375245	0.509609
	C5496	C	0.588036	-0.284870	0.546025
	C5497	C	0.592607	-0.374475	0.549348
	C5498	C	0.588060	-0.464194	0.546015
	C5499	C	0.579249	-0.464296	0.539435
	C5500	C	0.574732	-0.374846	0.535962
	C5501	C	0.579237	-0.284950	0.539463
	C5502	C	0.565498	-0.374592	0.528058
	C5503	C	0.601997	-0.374535	0.556736
	C5504	C	0.538383	-0.374313	0.527385
	C5505	C	0.529207	-0.374550	0.536839
	C5506	C	0.524847	-0.285387	0.541361
	C5507	C	0.516401	-0.285303	0.550266
	C5508	C	0.512094	-0.374581	0.554913
	C5509	C	0.516416	-0.463708	0.550288
	C5510	C	0.524849	-0.463723	0.541352
	C5511	C	0.503106	-0.374525	0.564853
	C5512	C	0.539480	-0.124246	0.494384
	C5513	C	0.530070	-0.124280	0.486888
	C5514	C	0.525517	-0.034676	0.483598
	C5515	C	0.516738	-0.034672	0.477003
	C5516	C	0.512244	-0.124419	0.473520
	C5517	C	0.516752	-0.214093	0.476952
	C5518	C	0.525535	-0.213977	0.483569
	C5519	C	0.502990	-0.124238	0.465619
	C5520	C	0.568272	-0.124268	0.500171
	C5521	C	0.578853	-0.124219	0.502062
	C5522	C	0.583802	-0.214364	0.503516
	C5523	C	0.593459	-0.214624	0.506425
	C5524	C	0.598418	-0.124722	0.507908
	C5525	C	0.593465	-0.034577	0.506524
	C5526	C	0.583808	-0.034345	0.503630
	C5527	C	0.609012	-0.124951	0.509607
	H5528	H	0.597176	-0.284534	0.507620
	H5529	H	0.580072	-0.284400	0.502388
	H5530	H	0.591443	-0.215198	0.548628
	H5531	H	0.575816	-0.215329	0.536942
	H5532	H	0.554916	-0.374385	0.491170
	H5533	H	0.551428	-0.124447	0.530681
	H5534	H	0.489852	-0.124694	0.563672
	H5535	H	0.622405	-0.375074	0.519774
	H5536	H	0.528914	-0.283752	0.486177
	H5537	H	0.513371	-0.283918	0.474412
	H5538	H	0.513143	-0.216078	0.553773
	H5539	H	0.528134	-0.216388	0.537873
	H5540	H	0.513338	0.035277	0.474456
	H5541	H	0.528894	0.035214	0.486280
	H5542	H	0.528117	-0.532850	0.537869
	H5543	H	0.513139	-0.533067	0.553837
	H5544	H	0.575842	-0.533885	0.536873
	H5545	H	0.591481	-0.533976	0.548551
	H5546	H	0.580061	0.035901	0.502583
	H5547	H	0.597177	0.035361	0.507776
	Al5548	Al	0.552565	0.000588	0.510816
	Al5549	Al	0.552564	0.250052	0.510800
	Al5550	Al	0.490073	0.250652	0.448329
	Al5551	Al	0.490077	-0.000212	0.448345
	O5552	O	0.561826	0.041434	0.525058
	O5553	O	0.553390	0.125309	0.501373
	O5554	O	0.552075	0.375578	0.520362
	O5555	O	0.605746	0.041886	0.559502
	O5556	O	0.541987	0.040838	0.523815
	O5557	O	0.499494	0.041224	0.568515
	O5558	O	0.541987	0.208906	0.523762
	O5559	O	0.543216	0.291340	0.497168
	O5560	O	0.499417	0.291255	0.462388
	O5561	O	0.561861	0.209549	0.524934
	O5562	O	0.563967	0.291896	0.499588
	O5563	O	0.613182	0.290747	0.510049
	O5564	O	0.499544	0.209195	0.568609
	O5565	O	0.543237	0.459428	0.497129
	O5566	O	0.499334	0.459322	0.462567
	O5567	O	0.613212	0.459066	0.510081
	O5568	O	0.564028	0.460153	0.499580
	O5569	O	0.605630	0.209817	0.559780
	O5570	O	0.489630	0.375110	0.573959
	O5571	O	0.623843	0.124972	0.509521
	C5572	C	0.588013	0.215550	0.546151
	C5573	C	0.592582	0.125759	0.549393
	C5574	C	0.588074	0.036033	0.545952
	C5575	C	0.579256	0.035730	0.539349
	C5576	C	0.574709	0.125525	0.535988
	C5577	C	0.579193	0.215366	0.539529
	C5578	C	0.565448	0.125624	0.528094
	C5579	C	0.601977	0.125715	0.556809
	C5580	C	0.538347	0.125010	0.527407
	C5581	C	0.529199	0.125200	0.536885
	C5582	C	0.524943	0.214345	0.541593
	C5583	C	0.516476	0.214291	0.550477
	C5584	C	0.512071	0.125198	0.554879
	C5585	C	0.516307	0.036169	0.550120
	C5586	C	0.524774	0.036174	0.541238
	C5587	C	0.503061	0.125183	0.564776
	C5588	C	0.539533	0.375567	0.494220
	C5589	C	0.530117	0.375574	0.486805
	C5590	C	0.525579	0.465251	0.483514
	C5591	C	0.516752	0.465021	0.476951
	C5592	C	0.512241	0.375490	0.473496
	C5593	C	0.516739	0.285864	0.476974
	C5594	C	0.525554	0.285970	0.483560
	C5595	C	0.502989	0.375218	0.465568
	C5596	C	0.568210	0.375886	0.500154
	C5597	C	0.578784	0.375399	0.502104
	C5598	C	0.583729	0.285348	0.503576
	C5599	C	0.593401	0.285139	0.506423
	C5600	C	0.598388	0.375056	0.507850
	C5601	C	0.593420	0.465101	0.506433
	C5602	C	0.583761	0.465245	0.503572
	C5603	C	0.608989	0.374956	0.509516
	H5604	H	0.597070	0.214983	0.507599
	H5605	H	0.579965	0.215464	0.502434
	H5606	H	0.591364	0.285396	0.548850
	H5607	H	0.575760	0.285143	0.537080
	H5608	H	0.554669	0.125245	0.491257
	H5609	H	0.551773	0.375882	0.530650
	H5610	H	0.489437	0.375709	0.563663
	H5611	H	0.622342	0.124779	0.519664
	H5612	H	0.528943	0.216091	0.486160
	H5613	H	0.513352	0.215845	0.474483
	H5614	H	0.513294	0.283362	0.554092
	H5615	H	0.528288	0.283471	0.538237
	H5616	H	0.513362	0.534886	0.474438
	H5617	H	0.528959	0.535067	0.486066
	H5618	H	0.527949	-0.032872	0.537601
	H5619	H	0.512960	-0.032974	0.553450
	H5620	H	0.575902	-0.034565	0.536781
	H5621	H	0.591496	-0.033869	0.548467
	H5622	H	0.580064	0.535545	0.502447
	H5623	H	0.597162	0.534931	0.507622
	Al5624	Al	0.552308	-0.499605	0.645696
	Al5625	Al	0.552341	-0.249737	0.645700
	Al5626	Al	0.489816	-0.249715	0.583361
	Al5627	Al	0.489828	-0.499871	0.583296
	O5628	O	0.562453	-0.458779	0.657888
	O5629	O	0.552156	-0.374666	0.636344
	O5630	O	0.552555	-0.124712	0.655118
	O5631	O	0.604740	-0.458878	0.696000
	O5632	O	0.542810	-0.458813	0.660760
	O5633	O	0.503879	-0.458481	0.713146
	O5634	O	0.542840	-0.290657	0.660796
	O5635	O	0.542298	-0.208413	0.633349
	O5636	O	0.499929	-0.208734	0.595636
	O5637	O	0.562464	-0.290599	0.657908
	O5638	O	0.562134	-0.208771	0.631104
	O5639	O	0.604531	-0.208412	0.586009
	O5640	O	0.503911	-0.290645	0.713148
	O5641	O	0.542362	-0.040320	0.633336
	O5642	O	0.499883	-0.040649	0.595610
	O5643	O	0.604538	-0.040660	0.586138
	O5644	O	0.562177	-0.040722	0.631201
	O5645	O	0.604735	-0.290643	0.695859
	O5646	O	0.494198	-0.124775	0.719153
	O5647	O	0.614592	-0.373924	0.582744
	C5648	C	0.587841	-0.285737	0.680649
	C5649	C	0.592140	-0.374866	0.684522
	C5650	C	0.587813	-0.463875	0.680676
	C5651	C	0.579396	-0.464010	0.673102
	C5652	C	0.575086	-0.374772	0.669259
	C5653	C	0.579419	-0.285703	0.673069
	C5654	C	0.566032	-0.374646	0.661007
	C5655	C	0.601163	-0.374874	0.692831
	C5656	C	0.539532	-0.374614	0.665131
	C5657	C	0.531181	-0.374418	0.676375
	C5658	C	0.527202	-0.285480	0.681719
	C5659	C	0.519460	-0.285715	0.692141
	C5660	C	0.515505	-0.374738	0.697468
	C5661	C	0.519470	-0.463535	0.692093
	C5662	C	0.527202	-0.463334	0.681667
	C5663	C	0.507171	-0.374627	0.708830
	C5664	C	0.538760	-0.124401	0.630185
	C5665	C	0.529690	-0.124363	0.621980
	C5666	C	0.525356	-0.035374	0.618144
	C5667	C	0.516894	-0.035272	0.610669
	C5668	C	0.512570	-0.124540	0.606869
	C5669	C	0.516890	-0.213665	0.610732
	C5670	C	0.525349	-0.213602	0.618216
	C5671	C	0.503488	-0.124509	0.598698
	C5672	C	0.565679	-0.124550	0.627360
	C5673	C	0.574661	-0.124518	0.617389
	C5674	C	0.578944	-0.213378	0.612722
	C5675	C	0.587380	-0.213251	0.603720
	C5676	C	0.591753	-0.124429	0.599242
	C5677	C	0.587448	-0.035491	0.603896
	C5678	C	0.579018	-0.035466	0.612890
	C5679	C	0.600901	-0.124710	0.589685
	H5680	H	0.590616	-0.282203	0.600121
	H5681	H	0.575694	-0.282520	0.616204
	H5682	H	0.591079	-0.216796	0.683668
	H5683	H	0.576146	-0.216492	0.670092
	H5684	H	0.552258	-0.374329	0.626053
	H5685	H	0.552884	-0.125158	0.665350
	H5686	H	0.493724	-0.124624	0.708942
	H5687	H	0.614001	-0.373094	0.593064
	H5688	H	0.528632	-0.282668	0.621175
	H5689	H	0.513612	-0.282947	0.607831
	H5690	H	0.516475	-0.216742	0.696259
	H5691	H	0.530196	-0.216748	0.677693
	H5692	H	0.513604	0.033620	0.607726
	H5693	H	0.528617	0.033551	0.621098
	H5694	H	0.530196	-0.532315	0.677602
	H5695	H	0.516466	-0.532637	0.696158
	H5696	H	0.576104	-0.532889	0.670157
	H5697	H	0.591053	-0.532642	0.683711
	H5698	H	0.575807	0.033581	0.616555
	H5699	H	0.590725	0.033438	0.600488
	Al5700	Al	0.552388	0.000636	0.645826
	Al5701	Al	0.552311	0.250293	0.645729
	Al5702	Al	0.489813	0.250210	0.583283
	Al5703	Al	0.489798	0.000142	0.583339
	O5704	O	0.562452	0.041905	0.658074
	O5705	O	0.552175	0.125054	0.636410
	O5706	O	0.552432	0.375457	0.655143
	O5707	O	0.604750	0.041395	0.696002
	O5708	O	0.542797	0.040967	0.660741
	O5709	O	0.503893	0.041164	0.713138
	O5710	O	0.542816	0.209188	0.660801
	O5711	O	0.542230	0.290931	0.633435
	O5712	O	0.499877	0.291398	0.595585
	O5713	O	0.562448	0.209869	0.657963
	O5714	O	0.561955	0.291306	0.630875
	O5715	O	0.604487	0.291593	0.586254
	O5716	O	0.503937	0.209169	0.713200
	O5717	O	0.542285	0.459180	0.633368
	O5718	O	0.499956	0.459575	0.595546
	O5719	O	0.604524	0.459534	0.586304
	O5720	O	0.562008	0.459298	0.631026
	O5721	O	0.604781	0.209640	0.695966
	O5722	O	0.494251	0.375109	0.719135
	O5723	O	0.614535	0.125428	0.582772
	C5724	C	0.587849	0.214593	0.680705
	C5725	C	0.592161	0.125714	0.684570
	C5726	C	0.587825	0.036891	0.680812
	C5727	C	0.579402	0.037127	0.673221
	C5728	C	0.575095	0.126065	0.669352
	C5729	C	0.579424	0.214926	0.673126
	C5730	C	0.566042	0.125859	0.661100
	C5731	C	0.601198	0.125555	0.692838
	C5732	C	0.539511	0.125076	0.665077
	C5733	C	0.531163	0.124821	0.676337
	C5734	C	0.527231	0.213860	0.681710
	C5735	C	0.519489	0.213794	0.692149
	C5736	C	0.515502	0.124809	0.697435
	C5737	C	0.519412	0.035772	0.692020
	C5738	C	0.527166	0.035761	0.681603
	C5739	C	0.507198	0.125227	0.708810
	C5740	C	0.538704	0.375063	0.630273
	C5741	C	0.529689	0.375048	0.621944
	C5742	C	0.525372	0.464207	0.618129
	C5743	C	0.516927	0.464385	0.610581
	C5744	C	0.512610	0.375180	0.606757
	C5745	C	0.516939	0.285954	0.610544
	C5746	C	0.525390	0.285772	0.618079
	C5747	C	0.503503	0.375312	0.598650
	C5748	C	0.565538	0.375406	0.627135
	C5749	C	0.574536	0.375497	0.617256
	C5750	C	0.578808	0.286519	0.612589
	C5751	C	0.587280	0.286474	0.603724
	C5752	C	0.591698	0.375332	0.599345
	C5753	C	0.587411	0.464266	0.604013
	C5754	C	0.578943	0.464341	0.612889
	C5755	C	0.600857	0.375521	0.589836
	H5756	H	0.590493	0.217512	0.600123
	H5757	H	0.575487	0.217718	0.615932
	H5758	H	0.591155	0.283224	0.683627
	H5759	H	0.576208	0.283972	0.670095
	H5760	H	0.552145	0.125327	0.626132
	H5761	H	0.552446	0.375530	0.665394
	H5762	H	0.493933	0.374904	0.708888
	H5763	H	0.613807	0.124969	0.593165
	H5764	H	0.528632	0.216708	0.621041
	H5765	H	0.513645	0.216988	0.607630
	H5766	H	0.516562	0.282766	0.696311
	H5767	H	0.530222	0.282799	0.677717
	H5768	H	0.513623	0.533919	0.607721
	H5769	H	0.528586	0.533300	0.621168
	H5770	H	0.530128	-0.033285	0.677499
	H5771	H	0.516402	-0.033387	0.696078
	H5772	H	0.576110	-0.031608	0.670225
	H5773	H	0.591063	-0.032198	0.683780
	H5774	H	0.575742	0.533241	0.616501
	H5775	H	0.590733	0.533091	0.600665
	Al5776	Al	0.557029	-0.499692	0.791032
	Al5777	Al	0.557037	-0.249712	0.791007
	Al5778	Al	0.494592	-0.249587	0.728438
	Al5779	Al	0.494543	-0.499777	0.728405
	O5780	O	0.567239	-0.458790	0.803067
	O5781	O	0.556694	-0.374565	0.781681
	O5782	O	0.557372	-0.124848	0.800323
	O5783	O	0.609305	-0.458634	0.841676
	O5784	O	0.547687	-0.458622	0.806317
	O5785	O	0.509306	-0.458959	0.859648
	O5786	O	0.547735	-0.290766	0.806390
	O5787	O	0.546805	-0.208962	0.779007
	O5788	O	0.504721	-0.208813	0.740592
	O5789	O	0.567247	-0.290640	0.803036
	O5790	O	0.566383	-0.208444	0.775709
	O5791	O	0.605288	-0.208422	0.723324
	O5792	O	0.509333	-0.290965	0.859738
	O5793	O	0.546858	-0.040900	0.778982
	O5794	O	0.504795	-0.040741	0.740439
	O5795	O	0.605346	-0.040641	0.723350
	O5796	O	0.566416	-0.040367	0.775808
	O5797	O	0.609374	-0.290784	0.841534
	O5798	O	0.499613	-0.125103	0.865752
	O5799	O	0.615022	-0.374698	0.717647
	C5800	C	0.592533	-0.285422	0.826028
	C5801	C	0.596802	-0.374427	0.829999
	C5802	C	0.592457	-0.463453	0.826201
	C5803	C	0.584080	-0.463449	0.818521
	C5804	C	0.579822	-0.374498	0.814501
	C5805	C	0.584132	-0.285393	0.818372
	C5806	C	0.570802	-0.374736	0.806208
	C5807	C	0.605796	-0.374655	0.838415
	C5808	C	0.544448	-0.374849	0.810748
	C5809	C	0.536248	-0.374664	0.822268
	C5810	C	0.532382	-0.285849	0.827810
	C5811	C	0.524772	-0.285839	0.838454
	C5812	C	0.520808	-0.374731	0.843802
	C5813	C	0.524706	-0.463507	0.838319
	C5814	C	0.532316	-0.463428	0.827679
	C5815	C	0.512565	-0.374904	0.855276
	C5816	C	0.543278	-0.124958	0.775812
	C5817	C	0.534308	-0.125027	0.767410
	C5818	C	0.530078	-0.036100	0.763435
	C5819	C	0.521696	-0.036140	0.755738
	C5820	C	0.517363	-0.124877	0.751929
	C5821	C	0.521571	-0.214027	0.755965
	C5822	C	0.529965	-0.214077	0.763655
	C5823	C	0.508334	-0.124874	0.743671
	C5824	C	0.569682	-0.124198	0.771410
	C5825	C	0.578005	-0.124275	0.760102
	C5826	C	0.581964	-0.213215	0.754740
	C5827	C	0.589694	-0.213351	0.744312
	C5828	C	0.593674	-0.124452	0.738960
	C5829	C	0.589707	-0.035580	0.744307
	C5830	C	0.581976	-0.035384	0.754752
	C5831	C	0.602036	-0.124542	0.727677
	H5832	H	0.592670	-0.282353	0.740195
	H5833	H	0.578970	-0.282305	0.758843
	H5834	H	0.595816	-0.216430	0.829017
	H5835	H	0.580895	-0.216560	0.815352
	H5836	H	0.556237	-0.374708	0.771458
	H5837	H	0.557803	-0.125115	0.810577
	H5838	H	0.499246	-0.125516	0.855527
	H5839	H	0.615392	-0.374046	0.727872
	H5840	H	0.533159	-0.283176	0.766796
	H5841	H	0.518228	-0.282792	0.753149
	H5842	H	0.521822	-0.217162	0.842635
	H5843	H	0.535352	-0.217002	0.823721
	H5844	H	0.518499	0.032909	0.752713
	H5845	H	0.533343	0.032702	0.766371
	H5846	H	0.535207	-0.532523	0.823453
	H5847	H	0.521729	-0.532536	0.842401
	H5848	H	0.580769	-0.532319	0.815613
	H5849	H	0.595627	-0.532473	0.829340
	H5850	H	0.579004	0.033622	0.758819
	H5851	H	0.592715	0.033106	0.740283
	Al5852	Al	0.557021	0.000212	0.791075
	Al5853	Al	0.557019	0.250208	0.791032
	Al5854	Al	0.494592	0.250262	0.728496
	Al5855	Al	0.494547	0.000095	0.728433
	O5856	O	0.567231	0.041059	0.803110
	O5857	O	0.556696	0.125377	0.781688
	O5858	O	0.557382	0.375129	0.800363
	O5859	O	0.609302	0.040988	0.841609
	O5860	O	0.547709	0.041011	0.806409
	O5861	O	0.509289	0.040802	0.859651
	O5862	O	0.547713	0.209054	0.806404
	O5863	O	0.546838	0.291104	0.779029
	O5864	O	0.504762	0.291311	0.740502
	O5865	O	0.567237	0.209075	0.803051
	O5866	O	0.566374	0.291060	0.775728
	O5867	O	0.605307	0.291139	0.723355
	O5868	O	0.509301	0.208785	0.859707
	O5869	O	0.546813	0.459532	0.779015
	O5870	O	0.504777	0.459598	0.740459
	O5871	O	0.605325	0.459437	0.723442
	O5872	O	0.566343	0.459283	0.775692
	O5873	O	0.609323	0.209031	0.841587
	O5874	O	0.499729	0.375196	0.865813
	O5875	O	0.615031	0.125213	0.717669
	C5876	C	0.592521	0.214260	0.826064
	C5877	C	0.596768	0.125009	0.830062
	C5878	C	0.592453	0.035833	0.826216
	C5879	C	0.584064	0.035988	0.818512
	C5880	C	0.579803	0.125260	0.814557
	C5881	C	0.584137	0.214413	0.818362
	C5882	C	0.570793	0.125021	0.806236
	C5883	C	0.605765	0.125086	0.838438
	C5884	C	0.544450	0.125027	0.810802
	C5885	C	0.536239	0.124828	0.822327
	C5886	C	0.532329	0.213642	0.827763
	C5887	C	0.524697	0.213590	0.838378
	C5888	C	0.520761	0.124825	0.843765
	C5889	C	0.524682	0.035851	0.838377
	C5890	C	0.532314	0.035939	0.827735
	C5891	C	0.512545	0.124754	0.855280
	C5892	C	0.543285	0.375366	0.775877
	C5893	C	0.534289	0.375008	0.767520
	C5894	C	0.530037	0.464101	0.763541
	C5895	C	0.521658	0.464130	0.755792
	C5896	C	0.517340	0.375024	0.751989
	C5897	C	0.521616	0.285923	0.755920
	C5898	C	0.529995	0.285997	0.763645
	C5899	C	0.508322	0.375428	0.743644
	C5900	C	0.569634	0.375170	0.771363
	C5901	C	0.577998	0.375405	0.760079
	C5902	C	0.581977	0.286312	0.754744
	C5903	C	0.589719	0.286171	0.744335
	C5904	C	0.593692	0.375231	0.739034
	C5905	C	0.589712	0.464495	0.744332
	C5906	C	0.581965	0.464593	0.754725
	C5907	C	0.602040	0.375253	0.727740
	H5908	H	0.592717	0.217174	0.740286
	H5909	H	0.578982	0.217364	0.758848
	H5910	H	0.595780	0.283439	0.829032
	H5911	H	0.580898	0.283407	0.815287
	H5912	H	0.556395	0.125066	0.771415
	H5913	H	0.557618	0.375062	0.810631
	H5914	H	0.499505	0.374698	0.855534
	H5915	H	0.615337	0.125549	0.727877
	H5916	H	0.533221	0.217165	0.766631
	H5917	H	0.518359	0.216874	0.752965
	H5918	H	0.521778	0.282423	0.842514
	H5919	H	0.535272	0.282691	0.823646
	H5920	H	0.518421	0.532840	0.752748
	H5921	H	0.533306	0.532943	0.766501
	H5922	H	0.535274	-0.032827	0.823638
	H5923	H	0.521730	-0.033072	0.842515
	H5924	H	0.580815	-0.033134	0.815543
	H5925	H	0.595667	-0.033355	0.829353
	H5926	H	0.578964	0.533608	0.758818
	H5927	H	0.592706	0.533628	0.740230
	Al5928	Al	0.562518	-0.499748	0.937561
	Al5929	Al	0.562511	-0.249794	0.937552
	Al5930	Al	0.500055	-0.249751	0.875111
	Al5931	Al	0.500053	-0.500007	0.875105
	O5932	O	0.572699	-0.458882	0.949552
	O5933	O	0.562150	-0.374970	0.928266
	O5934	O	0.562790	-0.125088	0.946911
	O5935	O	0.614775	-0.459130	0.988068
	O5936	O	0.553213	-0.459463	0.952940
	O5937	O	0.514815	-0.459346	1.006317
	O5938	O	0.553232	-0.291245	0.953075
	O5939	O	0.552256	-0.209043	0.925628
	O5940	O	0.510238	-0.209415	0.887053
	O5941	O	0.572725	-0.290721	0.949500
	O5942	O	0.571777	-0.209028	0.922156
	O5943	O	0.610207	-0.208809	0.868908
	O5944	O	0.514789	-0.291407	1.006280
	O5945	O	0.552256	-0.040802	0.925596
	O5946	O	0.510218	-0.041105	0.887039
	O5947	O	0.610217	-0.040630	0.868994
	O5948	O	0.571730	-0.041084	0.922182
	O5949	O	0.614753	-0.290762	0.988090
	O5950	O	0.505175	-0.125294	1.012311
	O5951	O	0.619872	-0.374548	0.862946
	C5952	C	0.597924	-0.285824	0.972692
	C5953	C	0.602215	-0.374844	0.976557
	C5954	C	0.597928	-0.463791	0.972668
	C5955	C	0.589553	-0.463768	0.964958
	C5956	C	0.585283	-0.374831	0.961018
	C5957	C	0.589547	-0.285762	0.964975
	C5958	C	0.576285	-0.374699	0.952648
	C5959	C	0.611236	-0.374998	0.984879
	C5960	C	0.549958	-0.375252	0.957376
	C5961	C	0.541725	-0.375483	0.968875
	C5962	C	0.537845	-0.286380	0.974333
	C5963	C	0.530236	-0.286616	0.984988
	C5964	C	0.526281	-0.375378	0.990361
	C5965	C	0.530190	-0.464367	0.984941
	C5966	C	0.537786	-0.464276	0.974269
	C5967	C	0.518056	-0.375450	1.001906
	C5968	C	0.548693	-0.124818	0.922459
	C5969	C	0.539693	-0.124864	0.914121
	C5970	C	0.535434	-0.035839	0.910132
	C5971	C	0.527068	-0.035803	0.902409
	C5972	C	0.522765	-0.124912	0.898575
	C5973	C	0.527047	-0.213970	0.902496
	C5974	C	0.535411	-0.214041	0.910237
	C5975	C	0.513788	-0.125297	0.890191
	C5976	C	0.575017	-0.124973	0.917800
	C5977	C	0.583244	-0.124976	0.906345
	C5978	C	0.587169	-0.214127	0.900944
	C5979	C	0.594822	-0.213730	0.890325
	C5980	C	0.598745	-0.124646	0.884852
	C5981	C	0.594819	-0.035501	0.890251
	C5982	C	0.587168	-0.035749	0.900883
	C5983	C	0.606975	-0.124852	0.873367
	H5984	H	0.597783	-0.282851	0.886189
	H5985	H	0.584255	-0.283351	0.905152
	H5986	H	0.601178	-0.217182	0.975739
	H5987	H	0.586317	-0.216935	0.961961
	H5988	H	0.561810	-0.374455	0.918029
	H5989	H	0.562858	-0.124713	0.957160
	H5990	H	0.504910	-0.125306	1.002158
	H5991	H	0.620172	-0.374832	0.873171
	H5992	H	0.538680	-0.282938	0.913281
	H5993	H	0.523837	-0.282742	0.899408
	H5994	H	0.527317	-0.217937	0.989152
	H5995	H	0.540824	-0.217514	0.970262
	H5996	H	0.523854	0.033144	0.899317
	H5997	H	0.538676	0.033501	0.913099
	H5998	H	0.540758	-0.533099	0.970125
	H5999	H	0.527227	-0.533326	0.989066
	H6000	H	0.586334	-0.532349	0.961926
	H6001	H	0.601154	-0.532707	0.975664
	H6002	H	0.584257	0.033268	0.905036
	H6003	H	0.597735	0.033639	0.886082
	Al6004	Al	0.562503	0.000009	0.937548
	Al6005	Al	0.562500	0.250064	0.937590
	Al6006	Al	0.500048	0.250168	0.875157
	Al6007	Al	0.499978	0.000099	0.875070
	O6008	O	0.572733	0.040731	0.949532
	O6009	O	0.562241	0.125056	0.928236
	O6010	O	0.562821	0.375156	0.946898
	O6011	O	0.614777	0.041053	0.988087
	O6012	O	0.553241	0.041255	0.952998
	O6013	O	0.514755	0.040908	1.006178
	O6014	O	0.553218	0.209235	0.952960
	O6015	O	0.552315	0.290662	0.925542
	O6016	O	0.510258	0.290828	0.887153
	O6017	O	0.572709	0.208857	0.949562
	O6018	O	0.571829	0.291224	0.922253
	O6019	O	0.610233	0.291117	0.868928
	O6020	O	0.514734	0.208934	1.006192
	O6021	O	0.552311	0.458884	0.925506
	O6022	O	0.510238	0.459191	0.887113
	O6023	O	0.610246	0.459058	0.868932
	O6024	O	0.571758	0.459039	0.922164
	O6025	O	0.614742	0.209388	0.988078
	O6026	O	0.505124	0.374630	1.012271
	O6027	O	0.619878	0.125272	0.862899
	C6028	C	0.597927	0.213600	0.972729
	C6029	C	0.602206	0.124672	0.976627
	C6030	C	0.597941	0.035644	0.972677
	C6031	C	0.589557	0.035467	0.964975
	C6032	C	0.585265	0.124622	0.961127
	C6033	C	0.589553	0.213548	0.965014
	C6034	C	0.576251	0.124778	0.952748
	C6035	C	0.611204	0.125218	0.984955
	C6036	C	0.549959	0.125195	0.957359
	C6037	C	0.541740	0.125150	0.968907
	C6038	C	0.537826	0.214363	0.974388
	C6039	C	0.530189	0.214167	0.985003
	C6040	C	0.526226	0.125029	0.990326
	C6041	C	0.530181	0.035990	0.984948
	C6042	C	0.537826	0.036199	0.974326
	C6043	C	0.517981	0.124785	1.001833
	C6044	C	0.548758	0.374763	0.922359
	C6045	C	0.539761	0.374956	0.914005
	C6046	C	0.535485	0.464221	0.910114
	C6047	C	0.527084	0.464441	0.902443
	C6048	C	0.522781	0.375092	0.898608
	C6049	C	0.527058	0.285889	0.902495
	C6050	C	0.535446	0.285789	0.910171
	C6051	C	0.513785	0.374901	0.890285
	C6052	C	0.575026	0.375356	0.917817
	C6053	C	0.583274	0.375312	0.906285
	C6054	C	0.587204	0.286499	0.900916
	C6055	C	0.594841	0.286321	0.890295
	C6056	C	0.598745	0.375120	0.884812
	C6057	C	0.594835	0.464029	0.890220
	C6058	C	0.587197	0.464288	0.900852
	C6059	C	0.606982	0.375140	0.873354
	H6060	H	0.597794	0.217235	0.886175
	H6061	H	0.584287	0.217589	0.905090
	H6062	H	0.601176	0.282444	0.975775
	H6063	H	0.586281	0.282420	0.962003
	H6064	H	0.561963	0.125552	0.917966
	H6065	H	0.563024	0.375438	0.957166
	H6066	H	0.504798	0.374158	1.002062
	H6067	H	0.620163	0.124930	0.873119
	H6068	H	0.538681	0.216666	0.913189
	H6069	H	0.523802	0.216883	0.899483
	H6070	H	0.527275	0.283228	0.989218
	H6071	H	0.540781	0.283321	0.970251
	H6072	H	0.523849	0.533383	0.899474
	H6073	H	0.538767	0.533014	0.913140
	H6074	H	0.540754	-0.033289	0.970169
	H6075	H	0.527247	-0.033157	0.989109
	H6076	H	0.586331	-0.033434	0.961939
	H6077	H	0.601202	-0.033233	0.975656
	H6078	H	0.584258	0.533073	0.905014
	H6079	H	0.597778	0.533080	0.886065
	Al6080	Al	0.687529	-0.500424	0.062522
	Al6081	Al	0.687513	-0.250269	0.062543
	Al6082	Al	0.625012	-0.250068	0.000058
	Al6083	Al	0.625003	-0.500196	0.000062
	O6084	O	0.697749	-0.459246	0.074515
	O6085	O	0.687157	-0.375223	0.053257
	O6086	O	0.687899	-0.125341	0.071868
	O6087	O	0.739798	-0.458979	0.113054
	O6088	O	0.678251	-0.459655	0.077886
	O6089	O	0.639746	-0.459461	0.131179
	O6090	O	0.678252	-0.291325	0.077925
	O6091	O	0.677273	-0.209424	0.050613
	O6092	O	0.635258	-0.209170	0.012078
	O6093	O	0.697742	-0.290743	0.074559
	O6094	O	0.696811	-0.209302	0.047194
	O6095	O	0.735205	-0.209211	-0.006139
	O6096	O	0.639786	-0.291409	0.131090
	O6097	O	0.677302	-0.041183	0.050603
	O6098	O	0.635272	-0.040883	0.011995
	O6099	O	0.735180	-0.041046	-0.006142
	O6100	O	0.696797	-0.041285	0.047232
	O6101	O	0.739809	-0.290685	0.113003
	O6102	O	0.630178	-0.125169	0.137247
	O6103	O	0.744949	-0.374587	-0.012202
	C6104	C	0.722999	-0.285857	0.097490
	C6105	C	0.727266	-0.375089	0.101460
	C6106	C	0.722947	-0.464317	0.097672
	C6107	C	0.714544	-0.464506	0.090014
	C6108	C	0.710298	-0.375243	0.086034
	C6109	C	0.714598	-0.286031	0.089826
	C6110	C	0.701282	-0.375059	0.077690
	C6111	C	0.736277	-0.375031	0.109844
	C6112	C	0.674997	-0.375590	0.082350
	C6113	C	0.666770	-0.375252	0.093852
	C6114	C	0.662845	-0.286398	0.099275
	C6115	C	0.655205	-0.286307	0.109895
	C6116	C	0.651293	-0.375405	0.115329
	C6117	C	0.655198	-0.464236	0.109877
	C6118	C	0.662835	-0.464317	0.099255
	C6119	C	0.643039	-0.375599	0.126795
	C6120	C	0.673743	-0.125299	0.047430
	C6121	C	0.664760	-0.125035	0.039019
	C6122	C	0.660459	-0.035834	0.035234
	C6123	C	0.652073	-0.035861	0.027539
	C6124	C	0.647815	-0.124890	0.023544
	C6125	C	0.652103	-0.214160	0.027378
	C6126	C	0.660484	-0.214121	0.035073
	C6127	C	0.638811	-0.124965	0.015176
	C6128	C	0.700036	-0.125178	0.042791
	C6129	C	0.708303	-0.125093	0.031326
	C6130	C	0.712227	-0.213893	0.025909
	C6131	C	0.719859	-0.213779	0.015270
	C6132	C	0.723722	-0.124871	0.009792
	C6133	C	0.719841	-0.035956	0.015284
	C6134	C	0.712216	-0.036080	0.025941
	C6135	C	0.731941	-0.125065	-0.001708
	H6136	H	0.722801	-0.282879	0.011119
	H6137	H	0.709297	-0.282853	0.030069
	H6138	H	0.726276	-0.216750	0.100426
	H6139	H	0.711383	-0.217303	0.086727
	H6140	H	0.686818	-0.374600	0.043007
	H6141	H	0.688191	-0.125089	0.082158
	H6142	H	0.629769	-0.125740	0.127011
	H6143	H	0.745266	-0.374585	-0.001924
	H6144	H	0.663705	-0.282986	0.038122
	H6145	H	0.648868	-0.283460	0.024316
	H6146	H	0.652306	-0.217207	0.114076
	H6147	H	0.665786	-0.217395	0.095091
	H6148	H	0.648786	0.033247	0.024588
	H6149	H	0.663671	0.033174	0.038317
	H6150	H	0.665758	-0.533374	0.095088
	H6151	H	0.652245	-0.533279	0.114077
	H6152	H	0.711286	-0.533440	0.087065
	H6153	H	0.726180	-0.533354	0.100775
	H6154	H	0.709284	0.032771	0.030100
	H6155	H	0.722752	0.032910	0.011144
	Al6156	Al	0.687515	-0.000258	0.062607
	Al6157	Al	0.687534	0.249787	0.062469
	Al6158	Al	0.625003	0.249876	0.000067
	Al6159	Al	0.624982	-0.000282	0.000073
	O6160	O	0.697756	0.040970	0.074530
	O6161	O	0.687160	0.124641	0.053238
	O6162	O	0.687902	0.374691	0.071783
	O6163	O	0.739812	0.041078	0.113061
	O6164	O	0.678218	0.040925	0.077876
	O6165	O	0.639798	0.041252	0.131163
	O6166	O	0.678242	0.209243	0.077860
	O6167	O	0.677292	0.290642	0.050451
	O6168	O	0.635237	0.290774	0.012035
	O6169	O	0.697774	0.209193	0.074482
	O6170	O	0.696820	0.290674	0.047069
	O6171	O	0.735281	0.291207	-0.006112
	O6172	O	0.639844	0.209253	0.131318
	O6173	O	0.677307	0.459102	0.050535
	O6174	O	0.635233	0.459302	0.012073
	O6175	O	0.735268	0.459351	-0.006161
	O6176	O	0.696799	0.458815	0.047068
	O6177	O	0.739804	0.209283	0.113094
	O6178	O	0.630135	0.374441	0.137307
	O6179	O	0.744879	0.125108	-0.012124
	C6180	C	0.722948	0.214178	0.097677
	C6181	C	0.727241	0.125253	0.101573
	C6182	C	0.722980	0.036209	0.097585
	C6183	C	0.714600	0.036061	0.089903
	C6184	C	0.710282	0.125110	0.086074
	C6185	C	0.714565	0.214038	0.090005
	C6186	C	0.701324	0.125124	0.077651
	C6187	C	0.736269	0.125075	0.109890
	C6188	C	0.674979	0.125228	0.082257
	C6189	C	0.666762	0.125217	0.093786
	C6190	C	0.662871	0.214340	0.099250
	C6191	C	0.655232	0.214415	0.109896
	C6192	C	0.651288	0.125389	0.115291
	C6193	C	0.655176	0.036374	0.109802
	C6194	C	0.662804	0.036359	0.099174
	C6195	C	0.643089	0.125393	0.126844
	C6196	C	0.673742	0.374779	0.047367
	C6197	C	0.664740	0.375213	0.038985
	C6198	C	0.660463	0.464420	0.035105
	C6199	C	0.652060	0.464355	0.027455
	C6200	C	0.647768	0.374973	0.023572
	C6201	C	0.652037	0.285705	0.027484
	C6202	C	0.660433	0.285911	0.035149
	C6203	C	0.638752	0.374903	0.015222
	C6204	C	0.700052	0.374697	0.042657
	C6205	C	0.708345	0.374833	0.031216
	C6206	C	0.712275	0.285959	0.025825
	C6207	C	0.719934	0.286012	0.015239
	C6208	C	0.723814	0.375232	0.009776
	C6209	C	0.719894	0.464149	0.015177
	C6210	C	0.712230	0.464036	0.025768
	C6211	C	0.732034	0.375136	-0.001715
	H6212	H	0.722909	0.216864	0.011154
	H6213	H	0.709315	0.216923	0.029915
	H6214	H	0.726237	0.283188	0.100607
	H6215	H	0.711323	0.282712	0.086965
	H6216	H	0.686755	0.124680	0.043000
	H6217	H	0.688145	0.374634	0.081996
	H6218	H	0.629772	0.373747	0.127034
	H6219	H	0.745268	0.124706	-0.001901
	H6220	H	0.663645	0.216924	0.038205
	H6221	H	0.648746	0.216860	0.024513
	H6222	H	0.652294	0.283399	0.114096
	H6223	H	0.665815	0.283407	0.095168
	H6224	H	0.648808	0.533240	0.024455
	H6225	H	0.663735	0.533170	0.038131
	H6226	H	0.665716	-0.032685	0.095002
	H6227	H	0.652205	-0.032604	0.113916
	H6228	H	0.711404	-0.032843	0.086765
	H6229	H	0.726288	-0.032946	0.100512
	H6230	H	0.709270	0.533058	0.029815
	H6231	H	0.722835	0.533219	0.011036
	Al6232	Al	0.692966	-0.500255	0.209021
	Al6233	Al	0.693003	-0.250190	0.209101
	Al6234	Al	0.630494	-0.250379	0.146541
	Al6235	Al	0.630443	-0.500478	0.146602
	O6236	O	0.703191	-0.459082	0.221120
	O6237	O	0.692735	-0.374957	0.199722
	O6238	O	0.693305	-0.125165	0.218434
	O6239	O	0.745304	-0.459662	0.259616
	O6240	O	0.683685	-0.459408	0.224386
	O6241	O	0.644674	-0.459627	0.276667
	O6242	O	0.683677	-0.291279	0.224360
	O6243	O	0.682779	-0.209502	0.197131
	O6244	O	0.640726	-0.209869	0.158537
	O6245	O	0.703230	-0.291060	0.221131
	O6246	O	0.702261	-0.209117	0.193714
	O6247	O	0.740642	-0.209620	0.140397
	O6248	O	0.644696	-0.291452	0.276706
	O6249	O	0.682764	-0.041074	0.197123
	O6250	O	0.640794	-0.041429	0.158550
	O6251	O	0.740734	-0.041361	0.140478
	O6252	O	0.702299	-0.040857	0.193723
	O6253	O	0.745294	-0.291622	0.259596
	O6254	O	0.634971	-0.125603	0.282387
	O6255	O	0.750355	-0.374804	0.134380
	C6256	C	0.728445	-0.286543	0.244283
	C6257	C	0.732748	-0.375676	0.248109
	C6258	C	0.728445	-0.464687	0.244173
	C6259	C	0.720044	-0.464574	0.236534
	C6260	C	0.715758	-0.375368	0.232665
	C6261	C	0.720029	-0.286336	0.236632
	C6262	C	0.706766	-0.375176	0.224311
	C6263	C	0.741746	-0.375735	0.256465
	C6264	C	0.680394	-0.375389	0.228743
	C6265	C	0.672054	-0.375369	0.240042
	C6266	C	0.668073	-0.286307	0.245355
	C6267	C	0.660337	-0.286372	0.255777
	C6268	C	0.656346	-0.375447	0.261106
	C6269	C	0.660325	-0.464517	0.255799
	C6270	C	0.668068	-0.464600	0.245391
	C6271	C	0.647980	-0.375539	0.272392
	C6272	C	0.679240	-0.125181	0.194016
	C6273	C	0.670220	-0.125510	0.185654
	C6274	C	0.665971	-0.036458	0.181641
	C6275	C	0.657598	-0.036767	0.173916
	C6276	C	0.653298	-0.126007	0.170111
	C6277	C	0.657537	-0.215175	0.174129
	C6278	C	0.665916	-0.214889	0.181860
	C6279	C	0.644300	-0.125862	0.161709
	C6280	C	0.705549	-0.125146	0.189338
	C6281	C	0.713760	-0.125216	0.177801
	C6282	C	0.717650	-0.214262	0.172364
	C6283	C	0.725291	-0.214219	0.161745
	C6284	C	0.729235	-0.125279	0.156372
	C6285	C	0.725319	-0.036225	0.161754
	C6286	C	0.717687	-0.036107	0.172369
	C6287	C	0.737441	-0.125443	0.144829
	H6288	H	0.728204	-0.282990	0.157518
	H6289	H	0.714708	-0.283156	0.176477
	H6290	H	0.731662	-0.217719	0.247384
	H6291	H	0.716772	-0.217058	0.233634
	H6292	H	0.692470	-0.374832	0.189483
	H6293	H	0.693583	-0.125209	0.228683
	H6294	H	0.634614	-0.125697	0.272135
	H6295	H	0.750769	-0.375205	0.144591
	H6296	H	0.669164	-0.283791	0.184936
	H6297	H	0.654246	-0.283924	0.171204
	H6298	H	0.657357	-0.217123	0.259819
	H6299	H	0.671083	-0.217088	0.241341
	H6300	H	0.654418	0.031991	0.170831
	H6301	H	0.669247	0.032589	0.184580
	H6302	H	0.671105	-0.533585	0.241364
	H6303	H	0.657327	-0.533568	0.259867
	H6304	H	0.716807	-0.533637	0.233513
	H6305	H	0.731700	-0.533737	0.247135
	H6306	H	0.714776	0.032710	0.176518
	H6307	H	0.728267	0.032659	0.157567
	Al6308	Al	0.693012	-0.000236	0.209121
	Al6309	Al	0.692945	0.249994	0.209037
	Al6310	Al	0.630493	0.249560	0.146646
	Al6311	Al	0.630544	-0.000269	0.146600
	O6312	O	0.703231	0.040718	0.221146
	O6313	O	0.692675	0.124722	0.199741
	O6314	O	0.693319	0.374812	0.218374
	O6315	O	0.745283	0.040760	0.259596
	O6316	O	0.683688	0.041079	0.224410
	O6317	O	0.644650	0.040392	0.276650
	O6318	O	0.683591	0.209342	0.224386
	O6319	O	0.682755	0.290712	0.197001
	O6320	O	0.640676	0.290743	0.158679
	O6321	O	0.703175	0.209083	0.221076
	O6322	O	0.702227	0.290786	0.193578
	O6323	O	0.740751	0.290666	0.140468
	O6324	O	0.644700	0.208622	0.276732
	O6325	O	0.682762	0.458910	0.197085
	O6326	O	0.640700	0.459112	0.158609
	O6327	O	0.740717	0.458865	0.140405
	O6328	O	0.702245	0.458538	0.193671
	O6329	O	0.745245	0.209114	0.259667
	O6330	O	0.634991	0.374586	0.282369
	O6331	O	0.750346	0.124910	0.134408
	C6332	C	0.728400	0.214278	0.244289
	C6333	C	0.732706	0.125048	0.248129
	C6334	C	0.728448	0.036091	0.244106
	C6335	C	0.720078	0.036371	0.236376
	C6336	C	0.715770	0.125459	0.232589
	C6337	C	0.720040	0.214539	0.236568
	C6338	C	0.706757	0.125076	0.224279
	C6339	C	0.741714	0.125049	0.256496
	C6340	C	0.680358	0.125052	0.228750
	C6341	C	0.672034	0.124635	0.240090
	C6342	C	0.668090	0.213727	0.245478
	C6343	C	0.660342	0.213747	0.255896
	C6344	C	0.656351	0.124539	0.261154
	C6345	C	0.660299	0.035215	0.255788
	C6346	C	0.668054	0.035550	0.245389
	C6347	C	0.647984	0.124651	0.272398
	C6348	C	0.679210	0.374769	0.193865
	C6349	C	0.670195	0.375052	0.185559
	C6350	C	0.665941	0.464266	0.181607
	C6351	C	0.657536	0.464247	0.173937
	C6352	C	0.653250	0.374959	0.170104
	C6353	C	0.657518	0.285866	0.174044
	C6354	C	0.665909	0.285827	0.181706
	C6355	C	0.644227	0.374883	0.161792
	C6356	C	0.705514	0.374620	0.189285
	C6357	C	0.713761	0.374653	0.177781
	C6358	C	0.717697	0.285771	0.172355
	C6359	C	0.725329	0.285971	0.161731
	C6360	C	0.729271	0.374835	0.156326
	C6361	C	0.725344	0.463952	0.161727
	C6362	C	0.717710	0.463495	0.172364
	C6363	C	0.737464	0.375044	0.144839
	H6364	H	0.728265	0.216819	0.157548
	H6365	H	0.714727	0.216935	0.176465
	H6366	H	0.731636	0.283168	0.247425
	H6367	H	0.716790	0.283653	0.233604
	H6368	H	0.692287	0.124285	0.189527
	H6369	H	0.693577	0.375083	0.228645
	H6370	H	0.634871	0.374083	0.272106
	H6371	H	0.750545	0.124649	0.144646
	H6372	H	0.669159	0.216889	0.184742
	H6373	H	0.654293	0.216710	0.171046
	H6374	H	0.657367	0.282889	0.259986
	H6375	H	0.671116	0.282820	0.241487
	H6376	H	0.654302	0.533231	0.170848
	H6377	H	0.669194	0.533302	0.184618
	H6378	H	0.671052	-0.033653	0.241345
	H6379	H	0.657284	-0.033814	0.259766
	H6380	H	0.716851	-0.032530	0.233227
	H6381	H	0.731714	-0.032835	0.247066
	H6382	H	0.714768	0.532358	0.176521
	H6383	H	0.728299	0.532816	0.157604
	Al6384	Al	0.697648	-0.500668	0.354254
	Al6385	Al	0.697686	-0.250222	0.354281
	Al6386	Al	0.635188	-0.250421	0.291743
	Al6387	Al	0.635173	-0.500631	0.291733
	O6388	O	0.707716	-0.459313	0.366570
	O6389	O	0.697454	-0.375246	0.344878
	O6390	O	0.697867	-0.125120	0.363607
	O6391	O	0.750077	-0.459270	0.404512
	O6392	O	0.687894	-0.459639	0.368916
	O6393	O	0.645504	-0.459562	0.413768
	O6394	O	0.687973	-0.291598	0.369021
	O6395	O	0.687554	-0.209494	0.342068
	O6396	O	0.645236	-0.209309	0.304096
	O6397	O	0.707740	-0.291316	0.366621
	O6398	O	0.707238	-0.209329	0.339236
	O6399	O	0.746186	-0.209147	0.286898
	O6400	O	0.645531	-0.291535	0.413771
	O6401	O	0.687612	-0.041172	0.342011
	O6402	O	0.645280	-0.041192	0.304006
	O6403	O	0.746192	-0.041053	0.286958
	O6404	O	0.707254	-0.041362	0.339265
	O6405	O	0.750065	-0.291258	0.404514
	O6406	O	0.635431	-0.125718	0.417189
	O6407	O	0.755794	-0.375160	0.280972
	C6408	C	0.733141	-0.286872	0.389302
	C6409	C	0.737429	-0.375586	0.393208
	C6410	C	0.733079	-0.464435	0.389471
	C6411	C	0.724637	-0.464343	0.381909
	C6412	C	0.720354	-0.375453	0.377999
	C6413	C	0.724718	-0.286761	0.381732
	C6414	C	0.711314	-0.375511	0.369714
	C6415	C	0.746483	-0.375270	0.401405
	C6416	C	0.684401	-0.375600	0.372779
	C6417	C	0.675390	-0.375802	0.382663
	C6418	C	0.671112	-0.286867	0.387305
	C6419	C	0.662648	-0.286599	0.396198
	C6420	C	0.658275	-0.375535	0.400652
	C6421	C	0.662571	-0.464636	0.396064
	C6422	C	0.671027	-0.464865	0.387154
	C6423	C	0.649147	-0.375659	0.410147
	C6424	C	0.684000	-0.125386	0.338948
	C6425	C	0.674902	-0.125196	0.330831
	C6426	C	0.670625	-0.036250	0.326912
	C6427	C	0.662187	-0.036137	0.319364
	C6428	C	0.657829	-0.125234	0.315595
	C6429	C	0.662117	-0.214188	0.319522
	C6430	C	0.670564	-0.214407	0.327061
	C6431	C	0.648810	-0.125092	0.307263
	C6432	C	0.710519	-0.125374	0.334893
	C6433	C	0.718868	-0.125190	0.323625
	C6434	C	0.722852	-0.214170	0.318317
	C6435	C	0.730580	-0.214196	0.307888
	C6436	C	0.734534	-0.125144	0.302507
	C6437	C	0.730571	-0.036166	0.307838
	C6438	C	0.722841	-0.036054	0.318279
	C6439	C	0.742895	-0.125137	0.291257
	H6440	H	0.733603	-0.283196	0.303815
	H6441	H	0.719864	-0.283333	0.322370
	H6442	H	0.736441	-0.217953	0.392130
	H6443	H	0.721510	-0.217862	0.378683
	H6444	H	0.697208	-0.375051	0.334633
	H6445	H	0.697894	-0.125710	0.373792
	H6446	H	0.635915	-0.125123	0.406824
	H6447	H	0.756099	-0.374648	0.291208
	H6448	H	0.673820	-0.283231	0.330048
	H6449	H	0.658818	-0.283250	0.316618
	H6450	H	0.659417	-0.217566	0.399725
	H6451	H	0.674415	-0.218138	0.383894
	H6452	H	0.658958	0.032822	0.316313
	H6453	H	0.673949	0.032327	0.329785
	H6454	H	0.674252	-0.533729	0.383625
	H6455	H	0.659269	-0.533756	0.399464
	H6456	H	0.721348	-0.533188	0.379011
	H6457	H	0.736341	-0.532965	0.392476
	H6458	H	0.719843	0.032771	0.322308
	H6459	H	0.733546	0.032895	0.303762
	Al6460	Al	0.697721	-0.000325	0.354272
	Al6461	Al	0.697700	0.249609	0.354274
	Al6462	Al	0.635132	0.249532	0.291761
	Al6463	Al	0.635198	-0.000665	0.291764
	O6464	O	0.707721	0.040687	0.366622
	O6465	O	0.697470	0.124753	0.344870
	O6466	O	0.697829	0.374379	0.363568
	O6467	O	0.750058	0.040393	0.404593
	O6468	O	0.687893	0.039770	0.368886
	O6469	O	0.645438	0.040379	0.413723
	O6470	O	0.687966	0.207852	0.368968
	O6471	O	0.687537	0.290306	0.342034
	O6472	O	0.645201	0.290519	0.304120
	O6473	O	0.707762	0.208903	0.366604
	O6474	O	0.707227	0.290610	0.339233
	O6475	O	0.746139	0.290895	0.286847
	O6476	O	0.645522	0.208326	0.413860
	O6477	O	0.687569	0.458454	0.341888
	O6478	O	0.645224	0.458652	0.304064
	O6479	O	0.746159	0.458942	0.286929
	O6480	O	0.707184	0.458497	0.339209
	O6481	O	0.750044	0.208618	0.404563
	O6482	O	0.635438	0.374404	0.417134
	O6483	O	0.755802	0.124752	0.280946
	C6484	C	0.733174	0.213715	0.389283
	C6485	C	0.737454	0.124386	0.393166
	C6486	C	0.733080	0.035225	0.389456
	C6487	C	0.724645	0.035159	0.381907
	C6488	C	0.720380	0.124391	0.377961
	C6489	C	0.724719	0.213431	0.381731
	C6490	C	0.711338	0.124539	0.369730
	C6491	C	0.746505	0.124429	0.401454
	C6492	C	0.684390	0.123939	0.372682
	C6493	C	0.675369	0.124511	0.382600
	C6494	C	0.671123	0.213423	0.387365
	C6495	C	0.662680	0.213168	0.396278
	C6496	C	0.658255	0.124198	0.400623
	C6497	C	0.662540	0.035471	0.395948
	C6498	C	0.670976	0.035620	0.387033
	C6499	C	0.649089	0.124413	0.410147
	C6500	C	0.683950	0.374313	0.338904
	C6501	C	0.674877	0.374368	0.330729
	C6502	C	0.670631	0.463335	0.326733
	C6503	C	0.662183	0.463407	0.319205
	C6504	C	0.657816	0.374489	0.315512
	C6505	C	0.662092	0.285447	0.319399
	C6506	C	0.670543	0.285468	0.326939
	C6507	C	0.648762	0.374742	0.307268
	C6508	C	0.710513	0.374584	0.334918
	C6509	C	0.718860	0.374842	0.323624
	C6510	C	0.722812	0.285766	0.318237
	C6511	C	0.730550	0.285602	0.307824
	C6512	C	0.734547	0.374656	0.302533
	C6513	C	0.730608	0.463708	0.307935
	C6514	C	0.722869	0.463883	0.318343
	C6515	C	0.742864	0.375008	0.291243
	H6516	H	0.733518	0.216334	0.303739
	H6517	H	0.719812	0.216949	0.322336
	H6518	H	0.736487	0.282655	0.392207
	H6519	H	0.721483	0.282355	0.378694
	H6520	H	0.697014	0.125178	0.334670
	H6521	H	0.697883	0.374279	0.373796
	H6522	H	0.635851	0.375150	0.406814
	H6523	H	0.755988	0.125029	0.291214
	H6524	H	0.673774	0.216582	0.329961
	H6525	H	0.658806	0.216564	0.316517
	H6526	H	0.659466	0.281850	0.399959
	H6527	H	0.674419	0.282093	0.383978
	H6528	H	0.658934	0.532214	0.316116
	H6529	H	0.673946	0.532276	0.329595
	H6530	H	0.674188	-0.033391	0.383345
	H6531	H	0.659211	-0.033696	0.399309
	H6532	H	0.721356	-0.033889	0.379064
	H6533	H	0.736296	-0.033826	0.392531
	H6534	H	0.719943	0.532787	0.322509
	H6535	H	0.733657	0.532897	0.303968
	Al6536	Al	0.697427	-0.501159	0.489231
	Al6537	Al	0.697440	-0.250101	0.489174
	Al6538	Al	0.634903	-0.251209	0.426733
	Al6539	Al	0.634956	-0.500092	0.426665
	O6540	O	0.706798	-0.459542	0.502809
	O6541	O	0.697929	-0.376176	0.479605
	O6542	O	0.696555	-0.125792	0.498626
	O6543	O	0.750629	-0.459558	0.537510
	O6544	O	0.685938	-0.460104	0.500379
	O6545	O	0.636762	-0.459220	0.489993
	O6546	O	0.685952	-0.291481	0.500349
	O6547	O	0.688155	-0.209935	0.474972
	O6548	O	0.644268	-0.209661	0.440354
	O6549	O	0.706794	-0.291568	0.502715
	O6550	O	0.707961	-0.209245	0.476132
	O6551	O	0.750480	-0.209035	0.431444
	O6552	O	0.636738	-0.291102	0.489981
	O6553	O	0.688103	-0.041952	0.475078
	O6554	O	0.644252	-0.041607	0.440405
	O6555	O	0.750470	-0.040871	0.431474
	O6556	O	0.708023	-0.041248	0.476225
	O6557	O	0.750615	-0.291455	0.537463
	O6558	O	0.626090	-0.125315	0.490490
	O6559	O	0.760332	-0.375305	0.426125
	C6560	C	0.733294	-0.285806	0.522848
	C6561	C	0.737782	-0.375473	0.526441
	C6562	C	0.733236	-0.465234	0.523045
	C6563	C	0.724430	-0.465275	0.516462
	C6564	C	0.719918	-0.375574	0.513018
	C6565	C	0.724497	-0.285888	0.516275
	C6566	C	0.710511	-0.375524	0.505619
	C6567	C	0.747027	-0.375509	0.534372
	C6568	C	0.681775	-0.375784	0.499750
	C6569	C	0.671185	-0.375566	0.497821
	C6570	C	0.666235	-0.285379	0.496375
	C6571	C	0.656568	-0.284998	0.493513
	C6572	C	0.651593	-0.375020	0.492099
	C6573	C	0.656555	-0.465116	0.493514
	C6574	C	0.666223	-0.465549	0.496367
	C6575	C	0.640956	-0.375053	0.490523
	C6576	C	0.684521	-0.125970	0.471925
	C6577	C	0.675278	-0.125952	0.463979
	C6578	C	0.670791	-0.036222	0.460439
	C6579	C	0.661978	-0.036210	0.453856
	C6580	C	0.657382	-0.125740	0.450679
	C6581	C	0.661940	-0.215368	0.453992
	C6582	C	0.670750	-0.215439	0.460558
	C6583	C	0.647976	-0.125583	0.443250
	C6584	C	0.711619	-0.125361	0.472544
	C6585	C	0.720773	-0.125301	0.463046
	C6586	C	0.725081	-0.214263	0.458443
	C6587	C	0.733538	-0.214402	0.449549
	C6588	C	0.737917	-0.125386	0.445114
	C6589	C	0.733640	-0.036329	0.449831
	C6590	C	0.725189	-0.036381	0.458715
	C6591	C	0.746899	-0.124993	0.435216
	H6592	H	0.736755	-0.283367	0.445957
	H6593	H	0.721757	-0.283047	0.461838
	H6594	H	0.736688	-0.215729	0.525350
	H6595	H	0.721104	-0.216146	0.513608
	H6596	H	0.698400	-0.376373	0.469258
	H6597	H	0.694950	-0.125693	0.508693
	H6598	H	0.627537	-0.125540	0.480305
	H6599	H	0.760381	-0.374880	0.436356
	H6600	H	0.674123	-0.285419	0.463156
	H6601	H	0.658525	-0.285346	0.451534
	H6602	H	0.652854	-0.215014	0.492316
	H6603	H	0.669972	-0.215219	0.497466
	H6604	H	0.658599	0.033488	0.451223
	H6605	H	0.674182	0.033791	0.462901
	H6606	H	0.669951	-0.535702	0.497448
	H6607	H	0.652817	-0.535148	0.492316
	H6608	H	0.720995	-0.535090	0.513973
	H6609	H	0.736621	-0.535072	0.525721
	H6610	H	0.721952	0.032758	0.462289
	H6611	H	0.736959	0.032699	0.446451
	Al6612	Al	0.697395	-0.001238	0.489203
	Al6613	Al	0.697417	0.249837	0.489188
	Al6614	Al	0.634916	0.248900	0.426767
	Al6615	Al	0.634895	-0.000047	0.426782
	O6616	O	0.706810	0.040003	0.502758
	O6617	O	0.697958	0.124428	0.479640
	O6618	O	0.696532	0.374269	0.498627
	O6619	O	0.750652	0.040788	0.537498
	O6620	O	0.685957	0.039918	0.500402
	O6621	O	0.636738	0.041121	0.489906
	O6622	O	0.685969	0.208378	0.500444
	O6623	O	0.688128	0.290178	0.474981
	O6624	O	0.644268	0.290781	0.440392
	O6625	O	0.706755	0.208162	0.502828
	O6626	O	0.707978	0.290093	0.476147
	O6627	O	0.750422	0.290174	0.431357
	O6628	O	0.636776	0.209489	0.489926
	O6629	O	0.688128	0.458480	0.474992
	O6630	O	0.644368	0.459063	0.440203
	O6631	O	0.750431	0.458185	0.431443
	O6632	O	0.707976	0.458096	0.476243
	O6633	O	0.750623	0.208763	0.537552
	O6634	O	0.626119	0.374975	0.490489
	O6635	O	0.760412	0.124530	0.426147
	C6636	C	0.733290	0.214082	0.522889
	C6637	C	0.737778	0.124640	0.526390
	C6638	C	0.733284	0.035074	0.522908
	C6639	C	0.724475	0.034988	0.516312
	C6640	C	0.719907	0.124354	0.513059
	C6641	C	0.724468	0.214000	0.516302
	C6642	C	0.710488	0.124214	0.505606
	C6643	C	0.747022	0.124683	0.534396
	C6644	C	0.681744	0.124250	0.499852
	C6645	C	0.671170	0.124393	0.497921
	C6646	C	0.666223	0.214661	0.496454
	C6647	C	0.656552	0.214879	0.493552
	C6648	C	0.651570	0.124941	0.492157
	C6649	C	0.656535	0.034762	0.493438
	C6650	C	0.666201	0.034519	0.496324
	C6651	C	0.640958	0.125224	0.490441
	C6652	C	0.684508	0.374353	0.471869
	C6653	C	0.675283	0.374389	0.463935
	C6654	C	0.670817	0.464133	0.460398
	C6655	C	0.662025	0.464172	0.453820
	C6656	C	0.657431	0.374567	0.450566
	C6657	C	0.661949	0.284708	0.453949
	C6658	C	0.670745	0.284709	0.460540
	C6659	C	0.648029	0.374919	0.443133
	C6660	C	0.711610	0.374103	0.472607
	C6661	C	0.720774	0.374315	0.463084
	C6662	C	0.725048	0.285232	0.458387
	C6663	C	0.733487	0.285276	0.449466
	C6664	C	0.737860	0.374359	0.445035
	C6665	C	0.733587	0.463477	0.449744
	C6666	C	0.725153	0.463470	0.458699
	C6667	C	0.746888	0.374179	0.435165
	H6668	H	0.736692	0.215987	0.445806
	H6669	H	0.721776	0.216010	0.461851
	H6670	H	0.736688	0.283799	0.525407
	H6671	H	0.721093	0.283890	0.513703
	H6672	H	0.698536	0.124622	0.469308
	H6673	H	0.695026	0.373842	0.508764
	H6674	H	0.627684	0.375080	0.480302
	H6675	H	0.760531	0.124366	0.436338
	H6676	H	0.674111	0.214736	0.463165
	H6677	H	0.658533	0.215112	0.451434
	H6678	H	0.652826	0.285324	0.492455
	H6679	H	0.669934	0.284679	0.497722
	H6680	H	0.658680	0.533735	0.451148
	H6681	H	0.674234	0.534038	0.462937
	H6682	H	0.669912	-0.035718	0.497516
	H6683	H	0.652810	-0.035194	0.492292
	H6684	H	0.721108	-0.034922	0.513691
	H6685	H	0.736675	-0.034983	0.525403
	H6686	H	0.721970	0.532445	0.462368
	H6687	H	0.736878	0.532466	0.446284
	Al6688	Al	0.687515	-0.499653	0.562426
	Al6689	Al	0.687466	-0.249676	0.562539
	Al6690	Al	0.624942	-0.250246	0.500035
	Al6691	Al	0.624954	-0.500122	0.500069
	O6692	O	0.696349	-0.458482	0.577322
	O6693	O	0.688661	-0.374424	0.553009
	O6694	O	0.686336	-0.124458	0.572075
	O6695	O	0.741099	-0.458346	0.610167
	O6696	O	0.675728	-0.459124	0.572584
	O6697	O	0.626493	-0.458772	0.562061
	O6698	O	0.675715	-0.290822	0.572695
	O6699	O	0.678548	-0.208717	0.547832
	O6700	O	0.633865	-0.208820	0.514791
	O6701	O	0.696398	-0.290695	0.577211
	O6702	O	0.699263	-0.208735	0.552488
	O6703	O	0.748457	-0.210449	0.562740
	O6704	O	0.626555	-0.290701	0.561918
	O6705	O	0.678635	-0.040892	0.547640
	O6706	O	0.633886	-0.041037	0.514747
	O6707	O	0.748536	-0.042091	0.562963
	O6708	O	0.699331	-0.040319	0.552539
	O6709	O	0.740978	-0.290551	0.610485
	O6710	O	0.616023	-0.123929	0.563624
	O6711	O	0.759075	-0.375644	0.561107
	C6712	C	0.723210	-0.284746	0.596780
	C6713	C	0.727876	-0.374407	0.599883
	C6714	C	0.723232	-0.463999	0.596704
	C6715	C	0.714224	-0.464165	0.590690
	C6716	C	0.709576	-0.374506	0.587562
	C6717	C	0.714202	-0.284862	0.590737
	C6718	C	0.700099	-0.374659	0.580198
	C6719	C	0.737327	-0.374440	0.607372
	C6720	C	0.671535	-0.374998	0.572088
	C6721	C	0.660917	-0.375054	0.570330
	C6722	C	0.655957	-0.285282	0.568839
	C6723	C	0.646304	-0.285070	0.565909
	C6724	C	0.641320	-0.375063	0.564514
	C6725	C	0.646282	-0.464867	0.566005
	C6726	C	0.655942	-0.465047	0.568921
	C6727	C	0.630734	-0.374772	0.562585
	C6728	C	0.674855	-0.124730	0.544851
	C6729	C	0.665421	-0.124875	0.537321
	C6730	C	0.660765	-0.035196	0.534143
	C6731	C	0.651743	-0.035243	0.528172
	C6732	C	0.647080	-0.124982	0.525118
	C6733	C	0.651709	-0.214841	0.528284
	C6734	C	0.660742	-0.214540	0.534284
	C6735	C	0.637600	-0.125089	0.517695
	C6736	C	0.703508	-0.124761	0.552994
	C6737	C	0.714100	-0.125069	0.554586
	C6738	C	0.719067	-0.215274	0.555915
	C6739	C	0.728742	-0.215575	0.558742
	C6740	C	0.733704	-0.125650	0.560276
	C6741	C	0.728750	-0.035369	0.558880
	C6742	C	0.719081	-0.035235	0.556031
	C6743	C	0.744287	-0.126019	0.562208
	H6744	H	0.732457	-0.285704	0.559858
	H6745	H	0.715329	-0.285509	0.554782
	H6746	H	0.726608	-0.214375	0.599100
	H6747	H	0.710722	-0.214568	0.588504
	H6748	H	0.690053	-0.374733	0.542874
	H6749	H	0.684905	-0.123961	0.582278
	H6750	H	0.617684	-0.123788	0.553561
	H6751	H	0.757458	-0.375409	0.571223
	H6752	H	0.664199	-0.284704	0.536572
	H6753	H	0.648282	-0.285333	0.525982
	H6754	H	0.642617	-0.215031	0.564726
	H6755	H	0.659690	-0.215034	0.570008
	H6756	H	0.648321	0.035033	0.525804
	H6757	H	0.664226	0.035166	0.536326
	H6758	H	0.659657	-0.535196	0.570112
	H6759	H	0.642539	-0.534799	0.564909
	H6760	H	0.710777	-0.534596	0.588436
	H6761	H	0.726698	-0.534448	0.599001
	H6762	H	0.715348	0.034887	0.555000
	H6763	H	0.732468	0.034710	0.560116
	Al6764	Al	0.687505	0.000077	0.562480
	Al6765	Al	0.687515	0.250403	0.562479
	Al6766	Al	0.624997	0.250058	0.500013
	Al6767	Al	0.624983	-0.000099	0.499971
	O6768	O	0.696370	0.041252	0.577259
	O6769	O	0.688603	0.125217	0.552921
	O6770	O	0.686376	0.375325	0.571948
	O6771	O	0.741094	0.041199	0.610267
	O6772	O	0.675716	0.041008	0.572496
	O6773	O	0.626538	0.041975	0.561949
	O6774	O	0.675762	0.209296	0.572577
	O6775	O	0.678607	0.291936	0.547703
	O6776	O	0.633902	0.290972	0.514776
	O6777	O	0.696432	0.209178	0.577124
	O6778	O	0.699255	0.291380	0.552239
	O6779	O	0.748422	0.289939	0.562938
	O6780	O	0.626570	0.210351	0.562138
	O6781	O	0.678574	0.459785	0.547705
	O6782	O	0.633873	0.458985	0.514804
	O6783	O	0.748483	0.458411	0.562897
	O6784	O	0.699311	0.459639	0.552391
	O6785	O	0.741125	0.209031	0.610216
	O6786	O	0.615924	0.375638	0.563819
	O6787	O	0.759089	0.124291	0.561175
	C6788	C	0.723279	0.215014	0.596698
	C6789	C	0.727913	0.125379	0.599905
	C6790	C	0.723242	0.035665	0.596785
	C6791	C	0.714221	0.035396	0.590814
	C6792	C	0.709570	0.125011	0.587654
	C6793	C	0.714262	0.214709	0.590714
	C6794	C	0.700121	0.125232	0.580124
	C6795	C	0.737407	0.125179	0.607263
	C6796	C	0.671541	0.125271	0.572000
	C6797	C	0.660926	0.125179	0.570328
	C6798	C	0.655976	0.215233	0.568992
	C6799	C	0.646315	0.215426	0.566114
	C6800	C	0.641352	0.125602	0.564581
	C6801	C	0.646296	0.035526	0.565972
	C6802	C	0.655963	0.035256	0.568865
	C6803	C	0.630756	0.125959	0.562673
	C6804	C	0.674879	0.375603	0.544758
	C6805	C	0.665392	0.375566	0.537327
	C6806	C	0.660723	0.465004	0.534238
	C6807	C	0.651722	0.464732	0.528260
	C6808	C	0.647082	0.375049	0.525127
	C6809	C	0.651752	0.285441	0.528217
	C6810	C	0.660760	0.285820	0.534177
	C6811	C	0.637594	0.375102	0.517750
	C6812	C	0.703498	0.375289	0.552821
	C6813	C	0.714107	0.375342	0.554532
	C6814	C	0.719044	0.285251	0.555930
	C6815	C	0.728695	0.284904	0.558870
	C6816	C	0.733670	0.374746	0.560430
	C6817	C	0.728743	0.464950	0.558934
	C6818	C	0.719090	0.465314	0.556017
	C6819	C	0.744252	0.374388	0.562337
	H6820	H	0.732368	0.214575	0.560031
	H6821	H	0.715278	0.215275	0.554789
	H6822	H	0.726748	0.285510	0.598983
	H6823	H	0.710826	0.285296	0.588399
	H6824	H	0.689987	0.125142	0.542810
	H6825	H	0.684816	0.376052	0.582052
	H6826	H	0.617395	0.376273	0.553744
	H6827	H	0.757720	0.124229	0.571359
	H6828	H	0.664226	0.215567	0.536398
	H6829	H	0.648323	0.215340	0.525894
	H6830	H	0.642591	0.285729	0.565018
	H6831	H	0.659706	0.285265	0.570181
	H6832	H	0.648275	0.534832	0.525966
	H6833	H	0.664177	0.535065	0.536476
	H6834	H	0.659677	-0.034822	0.569995
	H6835	H	0.642557	-0.034549	0.564782
	H6836	H	0.710743	-0.034829	0.588630
	H6837	H	0.726668	-0.034719	0.599144
	H6838	H	0.715384	0.535649	0.554950
	H6839	H	0.732484	0.534730	0.560157
	Al6840	Al	0.677571	-0.499324	0.635774
	Al6841	Al	0.677551	-0.249937	0.635812
	Al6842	Al	0.615105	-0.248890	0.573076
	Al6843	Al	0.615077	-0.499876	0.573341
	O6844	O	0.686834	-0.458383	0.649999
	O6845	O	0.678464	-0.374459	0.626308
	O6846	O	0.677091	-0.124680	0.645383
	O6847	O	0.730689	-0.458185	0.684702
	O6848	O	0.666968	-0.458640	0.648775
	O6849	O	0.624499	-0.458583	0.693681
	O6850	O	0.666966	-0.290631	0.648754
	O6851	O	0.668123	-0.208293	0.622307
	O6852	O	0.624425	-0.208241	0.587216
	O6853	O	0.686850	-0.290344	0.650008
	O6854	O	0.689046	-0.208551	0.624554
	O6855	O	0.738215	-0.208413	0.635191
	O6856	O	0.624506	-0.290545	0.693589
	O6857	O	0.668141	-0.040429	0.622306
	O6858	O	0.624424	-0.040175	0.587282
	O6859	O	0.738172	-0.040399	0.635168
	O6860	O	0.689026	-0.040440	0.624630
	O6861	O	0.730703	-0.290065	0.684533
	O6862	O	0.614625	-0.124805	0.698936
	O6863	O	0.748769	-0.374585	0.634565
	C6864	C	0.713005	-0.284834	0.671011
	C6865	C	0.717579	-0.374481	0.674360
	C6866	C	0.713022	-0.464173	0.671037
	C6867	C	0.704225	-0.464112	0.664484
	C6868	C	0.699685	-0.374332	0.661048
	C6869	C	0.704218	-0.284633	0.664451
	C6870	C	0.690440	-0.374369	0.653125
	C6871	C	0.726982	-0.374384	0.681790
	C6872	C	0.663335	-0.374623	0.652365
	C6873	C	0.654176	-0.374363	0.661898
	C6874	C	0.649772	-0.285287	0.666297
	C6875	C	0.641320	-0.285394	0.675229
	C6876	C	0.637056	-0.374656	0.679928
	C6877	C	0.641428	-0.463628	0.675447
	C6878	C	0.649882	-0.463574	0.666514
	C6879	C	0.628046	-0.374722	0.689844
	C6880	C	0.664448	-0.124324	0.619436
	C6881	C	0.655030	-0.124757	0.611972
	C6882	C	0.650473	-0.035100	0.608690
	C6883	C	0.641694	-0.034832	0.602007
	C6884	C	0.637227	-0.124427	0.598430
	C6885	C	0.641703	-0.214082	0.601944
	C6886	C	0.650494	-0.214326	0.608622
	C6887	C	0.628025	-0.124309	0.590405
	C6888	C	0.693252	-0.124465	0.625143
	C6889	C	0.703814	-0.124590	0.627033
	C6890	C	0.708755	-0.214589	0.628498
	C6891	C	0.718407	-0.214421	0.631417
	C6892	C	0.723386	-0.124595	0.632855
	C6893	C	0.718420	-0.034541	0.631480
	C6894	C	0.708761	-0.034603	0.628559
	C6895	C	0.733987	-0.124517	0.634577
	H6896	H	0.722121	-0.284605	0.632591
	H6897	H	0.705027	-0.284676	0.627335
	H6898	H	0.716418	-0.215541	0.673535
	H6899	H	0.700799	-0.214894	0.661860
	H6900	H	0.679972	-0.374503	0.616206
	H6901	H	0.676665	-0.124799	0.655724
	H6902	H	0.614519	-0.124696	0.688639
	H6903	H	0.747252	-0.375112	0.644733
	H6904	H	0.653889	-0.284368	0.611180
	H6905	H	0.638337	-0.284086	0.599318
	H6906	H	0.638021	-0.216342	0.678613
	H6907	H	0.652972	-0.216231	0.662662
	H6908	H	0.638318	0.035107	0.599510
	H6909	H	0.653822	0.034801	0.611381
	H6910	H	0.653181	-0.532660	0.663078
	H6911	H	0.638209	-0.532687	0.679033
	H6912	H	0.700798	-0.533834	0.661901
	H6913	H	0.716451	-0.533514	0.673583
	H6914	H	0.705014	0.035447	0.627444
	H6915	H	0.722134	0.035377	0.632684
	Al6916	Al	0.677560	0.000979	0.635849
	Al6917	Al	0.677583	0.250151	0.635763
	Al6918	Al	0.615075	0.251082	0.573261
	Al6919	Al	0.615091	0.000317	0.573158
	O6920	O	0.686840	0.041605	0.649963
	O6921	O	0.678428	0.125335	0.626303
	O6922	O	0.677051	0.375562	0.645364
	O6923	O	0.730687	0.042353	0.684680
	O6924	O	0.666966	0.041615	0.648704
	O6925	O	0.624528	0.041349	0.693555
	O6926	O	0.666935	0.209697	0.648678
	O6927	O	0.668266	0.291540	0.622086
	O6928	O	0.624369	0.291552	0.587479
	O6929	O	0.686835	0.209865	0.649939
	O6930	O	0.689046	0.291642	0.624606
	O6931	O	0.738215	0.291598	0.635051
	O6932	O	0.624528	0.209501	0.693570
	O6933	O	0.668244	0.459350	0.622150
	O6934	O	0.624352	0.459607	0.587521
	O6935	O	0.738210	0.459838	0.635025
	O6936	O	0.689031	0.459993	0.624642
	O6937	O	0.730648	0.210419	0.684761
	O6938	O	0.614669	0.375423	0.698940
	O6939	O	0.748768	0.125155	0.634532
	C6940	C	0.712962	0.215725	0.671176
	C6941	C	0.717526	0.125996	0.674467
	C6942	C	0.713033	0.036252	0.671030
	C6943	C	0.704233	0.036328	0.664439
	C6944	C	0.699681	0.126061	0.661052
	C6945	C	0.704160	0.215779	0.664572
	C6946	C	0.690451	0.125674	0.653074
	C6947	C	0.726974	0.126356	0.681862
	C6948	C	0.663335	0.125665	0.652340
	C6949	C	0.654171	0.125560	0.661838
	C6950	C	0.649823	0.214658	0.666322
	C6951	C	0.641379	0.214633	0.675242
	C6952	C	0.637084	0.125478	0.679896
	C6953	C	0.641393	0.036321	0.675345
	C6954	C	0.649832	0.036477	0.666397
	C6955	C	0.628089	0.125357	0.689803
	C6956	C	0.664557	0.375404	0.619203
	C6957	C	0.655165	0.375513	0.611745
	C6958	C	0.650598	0.465125	0.608479
	C6959	C	0.641766	0.465098	0.601952
	C6960	C	0.637251	0.375499	0.598455
	C6961	C	0.641763	0.285898	0.601914
	C6962	C	0.650589	0.286008	0.608425
	C6963	C	0.627977	0.375507	0.590616
	C6964	C	0.693256	0.375836	0.625214
	C6965	C	0.703838	0.375893	0.627130
	C6966	C	0.708781	0.285923	0.628673
	C6967	C	0.718451	0.285753	0.631561
	C6968	C	0.723417	0.375860	0.632877
	C6969	C	0.718450	0.465834	0.631418
	C6970	C	0.708791	0.465983	0.628537
	C6971	C	0.734004	0.375704	0.634481
	H6972	H	0.722171	0.215665	0.632771
	H6973	H	0.705045	0.215751	0.627595
	H6974	H	0.716392	0.285238	0.673702
	H6975	H	0.700787	0.285750	0.662000
	H6976	H	0.679862	0.125440	0.616138
	H6977	H	0.676480	0.375406	0.655709
	H6978	H	0.614619	0.375455	0.688678
	H6979	H	0.747258	0.125085	0.644660
	H6980	H	0.653963	0.216271	0.610945
	H6981	H	0.638347	0.215942	0.599417
	H6982	H	0.638103	0.283502	0.678760
	H6983	H	0.653077	0.283576	0.662816
	H6984	H	0.638334	0.535134	0.599504
	H6985	H	0.653991	0.534876	0.611087
	H6986	H	0.653101	-0.032556	0.662936
	H6987	H	0.638185	-0.032717	0.678931
	H6988	H	0.700892	-0.033754	0.661706
	H6989	H	0.716481	-0.033571	0.673399
	H6990	H	0.705070	0.536017	0.627381
	H6991	H	0.722171	0.536143	0.632567
	Al6992	Al	0.677317	-0.499295	0.770863
	Al6993	Al	0.677304	-0.249416	0.770839
	Al6994	Al	0.614799	-0.249852	0.708231
	Al6995	Al	0.614764	-0.499765	0.708346
	O6996	O	0.687371	-0.458405	0.783194
	O6997	O	0.677138	-0.374427	0.761455
	O6998	O	0.677519	-0.124473	0.780208
	O6999	O	0.729745	-0.458849	0.821049
	O7000	O	0.667811	-0.458103	0.785867
	O7001	O	0.628895	-0.458549	0.838287
	O7002	O	0.667823	-0.290346	0.785915
	O7003	O	0.667246	-0.208380	0.758494
	O7004	O	0.624909	-0.208785	0.720550
	O7005	O	0.687464	-0.290172	0.783013
	O7006	O	0.687025	-0.208327	0.756094
	O7007	O	0.729496	-0.207988	0.711166
	O7008	O	0.628882	-0.290508	0.838304
	O7009	O	0.667254	-0.040401	0.758464
	O7010	O	0.624932	-0.040842	0.720527
	O7011	O	0.729450	-0.040064	0.711250
	O7012	O	0.687130	-0.040109	0.756226
	O7013	O	0.729828	-0.290776	0.820891
	O7014	O	0.619172	-0.124687	0.844301
	O7015	O	0.739521	-0.374094	0.707836
	C7016	C	0.712874	-0.285795	0.805669
	C7017	C	0.717177	-0.374764	0.809562
	C7018	C	0.712831	-0.463742	0.805774
	C7019	C	0.704381	-0.463609	0.798256
	C7020	C	0.700069	-0.374441	0.794398
	C7021	C	0.704429	-0.285694	0.798166
	C7022	C	0.691003	-0.374403	0.786244
	C7023	C	0.726219	-0.374849	0.817847
	C7024	C	0.664506	-0.374294	0.790200
	C7025	C	0.656145	-0.374622	0.801455
	C7026	C	0.652191	-0.285722	0.806808
	C7027	C	0.644460	-0.285910	0.817261
	C7028	C	0.640472	-0.374660	0.822587
	C7029	C	0.644446	-0.463743	0.817249
	C7030	C	0.652175	-0.463577	0.806793
	C7031	C	0.632178	-0.374284	0.833924
	C7032	C	0.663693	-0.124525	0.755320
	C7033	C	0.654643	-0.124494	0.747068
	C7034	C	0.650317	-0.035391	0.743204
	C7035	C	0.641871	-0.035657	0.735683
	C7036	C	0.637562	-0.124915	0.731880
	C7037	C	0.641852	-0.213915	0.735808
	C7038	C	0.650305	-0.213871	0.743345
	C7039	C	0.628495	-0.124754	0.723656
	C7040	C	0.690622	-0.124256	0.752345
	C7041	C	0.699622	-0.124435	0.742444
	C7042	C	0.703901	-0.213321	0.737812
	C7043	C	0.712330	-0.213336	0.728852
	C7044	C	0.716696	-0.124506	0.724376
	C7045	C	0.712381	-0.035496	0.728939
	C7046	C	0.703961	-0.035503	0.737917
	C7047	C	0.725858	-0.124256	0.714824
	H7048	H	0.715567	-0.282318	0.725288
	H7049	H	0.700628	-0.282474	0.741267
	H7050	H	0.716149	-0.217258	0.808620
	H7051	H	0.701159	-0.216524	0.795157
	H7052	H	0.677023	-0.374339	0.751236
	H7053	H	0.677908	-0.124061	0.790450
	H7054	H	0.618784	-0.125033	0.834096
	H7055	H	0.739077	-0.373643	0.718147
	H7056	H	0.653548	-0.282786	0.746375
	H7057	H	0.638548	-0.283343	0.732877
	H7058	H	0.641477	-0.216975	0.821347
	H7059	H	0.655170	-0.216844	0.802741
	H7060	H	0.638633	0.033504	0.732676
	H7061	H	0.653579	0.033654	0.746160
	H7062	H	0.655159	-0.532433	0.802685
	H7063	H	0.641451	-0.532634	0.821301
	H7064	H	0.701069	-0.532187	0.795385
	H7065	H	0.716108	-0.532292	0.808806
	H7066	H	0.700720	0.033388	0.741449
	H7067	H	0.715650	0.033591	0.725462
	Al7068	Al	0.677311	0.000508	0.770840
	Al7069	Al	0.677287	0.250452	0.770795
	Al7070	Al	0.614796	0.250502	0.708302
	Al7071	Al	0.614833	0.000311	0.708283
	O7072	O	0.687377	0.041500	0.783218
	O7073	O	0.677154	0.125527	0.761461
	O7074	O	0.677497	0.375506	0.780199
	O7075	O	0.729728	0.040946	0.821079
	O7076	O	0.667794	0.041350	0.785876
	O7077	O	0.628896	0.040999	0.838262
	O7078	O	0.667767	0.209408	0.785844
	O7079	O	0.667310	0.291102	0.758310
	O7080	O	0.624892	0.291188	0.720574
	O7081	O	0.687445	0.209791	0.783040
	O7082	O	0.686991	0.291794	0.756079
	O7083	O	0.729511	0.291611	0.711330
	O7084	O	0.628862	0.209060	0.838233
	O7085	O	0.667281	0.459605	0.758432
	O7086	O	0.624880	0.459254	0.720603
	O7087	O	0.729499	0.459560	0.711323
	O7088	O	0.687082	0.459969	0.756175
	O7089	O	0.729795	0.209090	0.820990
	O7090	O	0.619273	0.375144	0.844265
	O7091	O	0.739551	0.125881	0.707844
	C7092	C	0.712857	0.214616	0.805741
	C7093	C	0.717148	0.125456	0.809602
	C7094	C	0.712811	0.036271	0.805839
	C7095	C	0.704370	0.036319	0.798269
	C7096	C	0.700079	0.125523	0.794380
	C7097	C	0.704410	0.214686	0.798169
	C7098	C	0.690980	0.125606	0.786194
	C7099	C	0.726193	0.125255	0.817892
	C7100	C	0.664455	0.125346	0.790158
	C7101	C	0.656151	0.125439	0.801470
	C7102	C	0.652236	0.214401	0.806894
	C7103	C	0.644504	0.214328	0.817348
	C7104	C	0.640474	0.125167	0.822565
	C7105	C	0.644422	0.036074	0.817192
	C7106	C	0.652153	0.036350	0.806743
	C7107	C	0.632163	0.125066	0.833907
	C7108	C	0.663735	0.375540	0.755225
	C7109	C	0.654669	0.375543	0.747000
	C7110	C	0.650372	0.464656	0.743138
	C7111	C	0.641914	0.464539	0.735627
	C7112	C	0.637554	0.375536	0.731895
	C7113	C	0.641871	0.286457	0.735749
	C7114	C	0.650332	0.286438	0.743256
	C7115	C	0.628462	0.375322	0.723689
	C7116	C	0.690556	0.375682	0.752312
	C7117	C	0.699540	0.375780	0.742343
	C7118	C	0.703835	0.286839	0.737666
	C7119	C	0.712287	0.286644	0.728769
	C7120	C	0.716674	0.375530	0.724334
	C7121	C	0.712364	0.464423	0.728936
	C7122	C	0.703916	0.464685	0.737841
	C7123	C	0.725861	0.375644	0.714932
	H7124	H	0.715542	0.218004	0.725280
	H7125	H	0.700568	0.217794	0.741130
	H7126	H	0.716123	0.283815	0.808674
	H7127	H	0.701152	0.283674	0.795209
	H7128	H	0.677208	0.125727	0.751174
	H7129	H	0.677784	0.375395	0.790538
	H7130	H	0.619004	0.375282	0.834079
	H7131	H	0.739101	0.126185	0.718236
	H7132	H	0.653602	0.217568	0.746214
	H7133	H	0.638577	0.217464	0.732839
	H7134	H	0.641509	0.283487	0.821427
	H7135	H	0.655240	0.283483	0.802835
	H7136	H	0.638653	0.533596	0.732575
	H7137	H	0.653661	0.533354	0.746012
	H7138	H	0.655099	-0.032742	0.802587
	H7139	H	0.641403	-0.033025	0.821172
	H7140	H	0.701064	-0.032726	0.795383
	H7141	H	0.716050	-0.032944	0.808874
	H7142	H	0.700708	0.533712	0.741430
	H7143	H	0.715681	0.533423	0.725589
	Al7144	Al	0.682031	-0.499842	0.916130
	Al7145	Al	0.682072	-0.249697	0.916115
	Al7146	Al	0.619563	-0.249609	0.853592
	Al7147	Al	0.619572	-0.499931	0.853587
	O7148	O	0.692279	-0.459059	0.928111
	O7149	O	0.681702	-0.374755	0.906810
	O7150	O	0.682297	-0.124766	0.925416
	O7151	O	0.734336	-0.459307	0.966470
	O7152	O	0.672731	-0.458900	0.931535
	O7153	O	0.634324	-0.459231	0.984755
	O7154	O	0.672767	-0.290920	0.931505
	O7155	O	0.671815	-0.208751	0.904151
	O7156	O	0.629765	-0.208739	0.865613
	O7157	O	0.692262	-0.290745	0.928075
	O7158	O	0.691426	-0.208807	0.900804
	O7159	O	0.730271	-0.208488	0.848244
	O7160	O	0.634299	-0.291019	0.984706
	O7161	O	0.671875	-0.040581	0.904028
	O7162	O	0.629784	-0.040425	0.865638
	O7163	O	0.730338	-0.040667	0.848421
	O7164	O	0.691369	-0.040636	0.900733
	O7165	O	0.734356	-0.291058	0.966472
	O7166	O	0.624650	-0.124950	0.990776
	O7167	O	0.740040	-0.374304	0.842701
	C7168	C	0.717525	-0.285737	0.951103
	C7169	C	0.721788	-0.374943	0.954991
	C7170	C	0.717500	-0.464125	0.951101
	C7171	C	0.709099	-0.463969	0.943451
	C7172	C	0.704813	-0.374754	0.939620
	C7173	C	0.709122	-0.285662	0.943464
	C7174	C	0.695799	-0.374875	0.931261
	C7175	C	0.730800	-0.375063	0.963328
	C7176	C	0.669517	-0.374885	0.935935
	C7177	C	0.661269	-0.374929	0.947405
	C7178	C	0.657327	-0.285938	0.952785
	C7179	C	0.649682	-0.285796	0.963379
	C7180	C	0.645769	-0.374972	0.968805
	C7181	C	0.649705	-0.464065	0.963421
	C7182	C	0.657350	-0.464035	0.952832
	C7183	C	0.637562	-0.374995	0.980355
	C7184	C	0.668305	-0.124645	0.900946
	C7185	C	0.659324	-0.124525	0.892522
	C7186	C	0.654993	-0.035340	0.888759
	C7187	C	0.646608	-0.035587	0.881069
	C7188	C	0.642365	-0.124822	0.877055
	C7189	C	0.646705	-0.213950	0.880824
	C7190	C	0.655075	-0.213841	0.888531
	C7191	C	0.633332	-0.124390	0.868758
	C7192	C	0.694685	-0.124671	0.896417
	C7193	C	0.702998	-0.124393	0.885048
	C7194	C	0.706947	-0.213710	0.879674
	C7195	C	0.714671	-0.213779	0.869216
	C7196	C	0.718655	-0.124596	0.863923
	C7197	C	0.714700	-0.035390	0.869277
	C7198	C	0.706963	-0.035230	0.879728
	C7199	C	0.727004	-0.124504	0.852667
	H7200	H	0.717622	-0.283162	0.865110
	H7201	H	0.703975	-0.282979	0.883789
	H7202	H	0.720779	-0.216787	0.954063
	H7203	H	0.705885	-0.216760	0.940464
	H7204	H	0.681392	-0.375277	0.896595
	H7205	H	0.682504	-0.124906	0.935739
	H7206	H	0.624178	-0.124429	0.980618
	H7207	H	0.740088	-0.374298	0.852991
	H7208	H	0.658350	-0.282937	0.891530
	H7209	H	0.643459	-0.283216	0.877730
	H7210	H	0.646749	-0.216846	0.967543
	H7211	H	0.660299	-0.216605	0.948682
	H7212	H	0.643308	0.033442	0.878185
	H7213	H	0.658197	0.033706	0.891877
	H7214	H	0.660328	-0.533115	0.948759
	H7215	H	0.646766	-0.533066	0.967595
	H7216	H	0.705837	-0.532853	0.940454
	H7217	H	0.720772	-0.532807	0.954077
	H7218	H	0.704021	0.033982	0.883897
	H7219	H	0.717675	0.033941	0.865228
	Al7220	Al	0.682037	0.000307	0.916132
	Al7221	Al	0.682039	0.250398	0.916112
	Al7222	Al	0.619544	0.249920	0.853543
	Al7223	Al	0.619537	0.000040	0.853622
	O7224	O	0.692285	0.040608	0.928068
	O7225	O	0.681758	0.125525	0.906775
	O7226	O	0.682377	0.375162	0.925386
	O7227	O	0.734353	0.041220	0.966422
	O7228	O	0.672728	0.040914	0.931531
	O7229	O	0.634293	0.040883	0.984671
	O7230	O	0.672750	0.208966	0.931496
	O7231	O	0.671840	0.291254	0.904023
	O7232	O	0.629768	0.291308	0.865546
	O7233	O	0.692234	0.209035	0.928110
	O7234	O	0.691392	0.291391	0.900819
	O7235	O	0.730277	0.291145	0.848339
	O7236	O	0.634313	0.208822	0.984744
	O7237	O	0.671807	0.459377	0.904126
	O7238	O	0.629771	0.459332	0.865645
	O7239	O	0.730351	0.459321	0.848384
	O7240	O	0.691344	0.459446	0.900756
	O7241	O	0.734295	0.209596	0.966573
	O7242	O	0.624608	0.374802	0.990722
	O7243	O	0.740041	0.125373	0.842778
	C7244	C	0.717476	0.214719	0.951109
	C7245	C	0.721772	0.125411	0.954988
	C7246	C	0.717493	0.036171	0.951079
	C7247	C	0.709116	0.035934	0.943378
	C7248	C	0.704837	0.125216	0.939506
	C7249	C	0.709101	0.214619	0.943424
	C7250	C	0.695801	0.124947	0.931198
	C7251	C	0.730785	0.125421	0.963343
	C7252	C	0.669457	0.124952	0.935900
	C7253	C	0.661233	0.125057	0.947351
	C7254	C	0.657314	0.213921	0.952814
	C7255	C	0.649699	0.213876	0.963448
	C7256	C	0.645756	0.124952	0.968803
	C7257	C	0.649643	0.035991	0.963338
	C7258	C	0.657279	0.036041	0.952719
	C7259	C	0.637562	0.124932	0.980279
	C7260	C	0.668290	0.375406	0.900880
	C7261	C	0.659289	0.375285	0.892537
	C7262	C	0.654980	0.464426	0.888695
	C7263	C	0.646590	0.464443	0.881052
	C7264	C	0.642334	0.375332	0.877075
	C7265	C	0.646652	0.286205	0.880899
	C7266	C	0.655040	0.286116	0.888559
	C7267	C	0.633326	0.375095	0.868727
	C7268	C	0.694668	0.375517	0.896413
	C7269	C	0.702977	0.375703	0.885083
	C7270	C	0.706954	0.286869	0.879742
	C7271	C	0.714670	0.286751	0.869278
	C7272	C	0.718655	0.375552	0.863926
	C7273	C	0.714684	0.464626	0.869252
	C7274	C	0.706962	0.464698	0.879698
	C7275	C	0.727003	0.375294	0.852654
	H7276	H	0.717644	0.217966	0.865178
	H7277	H	0.703941	0.217846	0.883817
	H7278	H	0.720706	0.283678	0.954172
	H7279	H	0.705809	0.283608	0.940426
	H7280	H	0.681668	0.124876	0.896512
	H7281	H	0.682694	0.374845	0.935641
	H7282	H	0.624202	0.374825	0.980514
	H7283	H	0.740365	0.125325	0.852996
	H7284	H	0.658311	0.217296	0.891547
	H7285	H	0.643435	0.217329	0.877748
	H7286	H	0.646773	0.282715	0.967604
	H7287	H	0.660276	0.282983	0.948699
	H7288	H	0.643341	0.533428	0.878024
	H7289	H	0.658179	0.533407	0.891775
	H7290	H	0.660205	-0.032874	0.948504
	H7291	H	0.646662	-0.032931	0.967438
	H7292	H	0.705859	-0.033078	0.940351
	H7293	H	0.720739	-0.033117	0.954140
	H7294	H	0.703974	0.533764	0.883730
	H7295	H	0.717670	0.533523	0.865089
	Al7296	Al	0.807048	-0.499994	0.041038
	Al7297	Al	0.807035	-0.249692	0.040966
	Al7298	Al	0.744553	-0.249766	-0.021497
	Al7299	Al	0.744553	-0.499770	-0.021515
	O7300	O	0.817281	-0.458711	0.053008
	O7301	O	0.806691	-0.374942	0.031703
	O7302	O	0.807306	-0.124848	0.050294
	O7303	O	0.859353	-0.458639	0.091459
	O7304	O	0.797767	-0.458872	0.056393
	O7305	O	0.759317	-0.458997	0.109668
	O7306	O	0.797773	-0.291092	0.056401
	O7307	O	0.796815	-0.208998	0.028931
	O7308	O	0.754710	-0.208648	-0.009464
	O7309	O	0.817234	-0.290513	0.052985
	O7310	O	0.816372	-0.208765	0.025699
	O7311	O	0.855335	-0.208521	-0.026625
	O7312	O	0.759286	-0.290827	0.109639
	O7313	O	0.796837	-0.040848	0.028969
	O7314	O	0.754692	-0.040427	-0.009385
	O7315	O	0.855327	-0.040318	-0.026626
	O7316	O	0.816370	-0.040605	0.025614
	O7317	O	0.859309	-0.290543	0.091602
	O7318	O	0.749680	-0.124957	0.115717
	O7319	O	0.865015	-0.374505	-0.032258
	C7320	C	0.842488	-0.284925	0.076110
	C7321	C	0.846773	-0.374256	0.080030
	C7322	C	0.842505	-0.463379	0.076058
	C7323	C	0.834125	-0.463635	0.068362
	C7324	C	0.829820	-0.374367	0.064495
	C7325	C	0.834105	-0.285227	0.068429
	C7326	C	0.820809	-0.374567	0.056160
	C7327	C	0.855790	-0.374537	0.088366
	C7328	C	0.794504	-0.374917	0.060792
	C7329	C	0.786284	-0.374862	0.072291
	C7330	C	0.782345	-0.285705	0.077671
	C7331	C	0.774695	-0.285610	0.088273
	C7332	C	0.770783	-0.374893	0.093730
	C7333	C	0.774720	-0.463958	0.088322
	C7334	C	0.782361	-0.463977	0.077741
	C7335	C	0.762554	-0.374711	0.105221
	C7336	C	0.793289	-0.124766	0.025754
	C7337	C	0.784272	-0.125027	0.017443
	C7338	C	0.779958	-0.035736	0.013607
	C7339	C	0.771542	-0.035752	0.005986
	C7340	C	0.767264	-0.124978	0.002046
	C7341	C	0.771591	-0.214282	0.005880
	C7342	C	0.780001	-0.214311	0.013502
	C7343	C	0.758248	-0.124755	-0.006259
	C7344	C	0.819653	-0.124879	0.021307
	C7345	C	0.828005	-0.124831	0.010040
	C7346	C	0.831964	-0.213733	0.004704
	C7347	C	0.839720	-0.213639	-0.005709
	C7348	C	0.843707	-0.124680	-0.011023
	C7349	C	0.839719	-0.035756	-0.005722
	C7350	C	0.831958	-0.035867	0.004673
	C7351	C	0.852029	-0.124568	-0.022276
	H7352	H	0.842675	-0.282635	-0.009782
	H7353	H	0.828908	-0.282559	0.008715
	H7354	H	0.845757	-0.215717	0.079094
	H7355	H	0.830845	-0.215992	0.065432
	H7356	H	0.806298	-0.375220	0.021471
	H7357	H	0.807507	-0.124699	0.060540
	H7358	H	0.749377	-0.125057	0.105394
	H7359	H	0.865362	-0.374664	-0.022054
	H7360	H	0.783248	-0.283330	0.016508
	H7361	H	0.768347	-0.283605	0.002799
	H7362	H	0.771703	-0.216453	0.092388
	H7363	H	0.785281	-0.216657	0.073468
	H7364	H	0.768276	0.033274	0.002977
	H7365	H	0.783211	0.033188	0.016665
	H7366	H	0.785306	-0.533086	0.073568
	H7367	H	0.771774	-0.533174	0.092404
	H7368	H	0.830890	-0.532738	0.065301
	H7369	H	0.845793	-0.532212	0.079018
	H7370	H	0.828940	0.033057	0.008707
	H7371	H	0.842692	0.033038	-0.009824
	Al7372	Al	0.807034	0.000064	0.040986
	Al7373	Al	0.807023	0.250216	0.041101
	Al7374	Al	0.744572	0.249877	-0.021460
	Al7375	Al	0.744508	-0.000032	-0.021481
	O7376	O	0.817265	0.040464	0.053021
	O7377	O	0.806679	0.125178	0.031732
	O7378	O	0.807420	0.375277	0.050369
	O7379	O	0.859323	0.040746	0.091444
	O7380	O	0.797757	0.041233	0.056441
	O7381	O	0.759323	0.040846	0.109743
	O7382	O	0.797726	0.209414	0.056432
	O7383	O	0.796805	0.290965	0.029106
	O7384	O	0.754763	0.291105	-0.009438
	O7385	O	0.817215	0.208596	0.053074
	O7386	O	0.816402	0.290898	0.025751
	O7387	O	0.855333	0.291243	-0.026623
	O7388	O	0.759291	0.208698	0.109681
	O7389	O	0.796832	0.458893	0.029090
	O7390	O	0.754758	0.459263	-0.009397
	O7391	O	0.855283	0.459078	-0.026696
	O7392	O	0.816366	0.458598	0.025674
	O7393	O	0.859310	0.209028	0.091469
	O7394	O	0.749696	0.375122	0.115772
	O7395	O	0.865019	0.125521	-0.032340
	C7396	C	0.842488	0.213754	0.076038
	C7397	C	0.846773	0.124737	0.079989
	C7398	C	0.842508	0.035587	0.076091
	C7399	C	0.834122	0.035512	0.068427
	C7400	C	0.829825	0.124578	0.064504
	C7401	C	0.834098	0.213730	0.068385
	C7402	C	0.820786	0.124537	0.056212
	C7403	C	0.855769	0.124906	0.088311
	C7404	C	0.794476	0.125221	0.060827
	C7405	C	0.786233	0.125064	0.072277
	C7406	C	0.782257	0.214036	0.077603
	C7407	C	0.774616	0.214149	0.088209
	C7408	C	0.770746	0.125234	0.093739
	C7409	C	0.774754	0.036240	0.088446
	C7410	C	0.782396	0.036097	0.077838
	C7411	C	0.762552	0.124998	0.105295
	C7412	C	0.793267	0.374850	0.025901
	C7413	C	0.784261	0.375081	0.017575
	C7414	C	0.779940	0.464142	0.013728
	C7415	C	0.771565	0.464316	0.006045
	C7416	C	0.767300	0.375256	0.002074
	C7417	C	0.771623	0.286017	0.005884
	C7418	C	0.780010	0.285901	0.013551
	C7419	C	0.758302	0.375248	-0.006243
	C7420	C	0.819684	0.374876	0.021360
	C7421	C	0.828009	0.374932	0.010085
	C7422	C	0.831977	0.285967	0.004704
	C7423	C	0.839717	0.286110	-0.005719
	C7424	C	0.843703	0.375035	-0.011018
	C7425	C	0.839688	0.463995	-0.005742
	C7426	C	0.831942	0.463858	0.004685
	C7427	C	0.852044	0.375171	-0.022286
	H7428	H	0.842719	0.217138	-0.009788
	H7429	H	0.828984	0.216986	0.008768
	H7430	H	0.845752	0.282666	0.079076
	H7431	H	0.830825	0.282561	0.065384
	H7432	H	0.806327	0.125601	0.021494
	H7433	H	0.807745	0.375547	0.060660
	H7434	H	0.749218	0.375236	0.105538
	H7435	H	0.865331	0.125052	-0.022095
	H7436	H	0.783332	0.217010	0.016456
	H7437	H	0.768388	0.216898	0.002767
	H7438	H	0.771643	0.283162	0.092280
	H7439	H	0.785197	0.282951	0.073432
	H7440	H	0.768324	0.533249	0.003090
	H7441	H	0.783176	0.532878	0.016732
	H7442	H	0.785434	-0.032969	0.073856
	H7443	H	0.771871	-0.032629	0.092713
	H7444	H	0.830856	-0.033472	0.065474
	H7445	H	0.845740	-0.033342	0.079144
	H7446	H	0.828944	0.532923	0.008732
	H7447	H	0.842691	0.533006	-0.009817
	Al7448	Al	0.812494	-0.500623	0.187613
	Al7449	Al	0.812488	-0.250357	0.187602
	Al7450	Al	0.749977	-0.249907	0.125063
	Al7451	Al	0.750026	-0.499689	0.125014
	O7452	O	0.822756	-0.459372	0.199558
	O7453	O	0.812143	-0.375488	0.178252
	O7454	O	0.812899	-0.124986	0.196884
	O7455	O	0.864783	-0.459479	0.237992
	O7456	O	0.803201	-0.458986	0.202996
	O7457	O	0.764819	-0.459094	0.256302
	O7458	O	0.803185	-0.290556	0.202911
	O7459	O	0.802324	-0.209021	0.175484
	O7460	O	0.760251	-0.209028	0.137081
	O7461	O	0.822748	-0.291239	0.199505
	O7462	O	0.821795	-0.209362	0.172172
	O7463	O	0.860289	-0.208953	0.118978
	O7464	O	0.764802	-0.291105	0.256257
	O7465	O	0.802291	-0.040752	0.175567
	O7466	O	0.760207	-0.040983	0.137074
	O7467	O	0.860254	-0.040838	0.118946
	O7468	O	0.821794	-0.041180	0.172157
	O7469	O	0.864765	-0.291162	0.238063
	O7470	O	0.755121	-0.125236	0.262308
	O7471	O	0.869900	-0.374771	0.112875
	C7472	C	0.847968	-0.285906	0.222624
	C7473	C	0.852202	-0.375051	0.226628
	C7474	C	0.847907	-0.464329	0.222746
	C7475	C	0.839532	-0.464504	0.215036
	C7476	C	0.835272	-0.375182	0.211109
	C7477	C	0.839612	-0.285896	0.214905
	C7478	C	0.826296	-0.375106	0.202696
	C7479	C	0.861222	-0.375278	0.234905
	C7480	C	0.799939	-0.374715	0.207350
	C7481	C	0.791734	-0.374664	0.218856
	C7482	C	0.787738	-0.285732	0.224193
	C7483	C	0.780132	-0.285823	0.234821
	C7484	C	0.776266	-0.374973	0.240345
	C7485	C	0.780223	-0.463948	0.234970
	C7486	C	0.787833	-0.463946	0.224339
	C7487	C	0.768058	-0.374968	0.251863
	C7488	C	0.798747	-0.124956	0.172379
	C7489	C	0.789763	-0.124900	0.163995
	C7490	C	0.785467	-0.035903	0.160139
	C7491	C	0.777073	-0.035833	0.152474
	C7492	C	0.772824	-0.124849	0.148516
	C7493	C	0.777137	-0.213964	0.152351
	C7494	C	0.785527	-0.213853	0.160037
	C7495	C	0.763802	-0.124865	0.140200
	C7496	C	0.825023	-0.125163	0.167741
	C7497	C	0.833217	-0.125060	0.156185
	C7498	C	0.837135	-0.214351	0.150730
	C7499	C	0.844796	-0.214214	0.140163
	C7500	C	0.848744	-0.125022	0.134786
	C7501	C	0.844844	-0.035800	0.140245
	C7502	C	0.837186	-0.035910	0.150822
	C7503	C	0.857005	-0.124849	0.123350
	H7504	H	0.847748	-0.283096	0.135977
	H7505	H	0.834174	-0.283407	0.154824
	H7506	H	0.851264	-0.216726	0.225516
	H7507	H	0.836432	-0.216836	0.211781
	H7508	H	0.811857	-0.375631	0.168032
	H7509	H	0.813356	-0.124604	0.207029
	H7510	H	0.754568	-0.125339	0.252095
	H7511	H	0.870176	-0.374034	0.123255
	H7512	H	0.788770	-0.282922	0.163034
	H7513	H	0.773929	-0.282919	0.149293
	H7514	H	0.777109	-0.217187	0.238889
	H7515	H	0.790628	-0.216816	0.219911
	H7516	H	0.773792	0.033122	0.149541
	H7517	H	0.788679	0.032897	0.163241
	H7518	H	0.790801	-0.532835	0.220190
	H7519	H	0.777266	-0.532931	0.239161
	H7520	H	0.836271	-0.533334	0.212014
	H7521	H	0.851139	-0.533235	0.225807
	H7522	H	0.834250	0.032912	0.155033
	H7523	H	0.847811	0.033172	0.136173
	Al7524	Al	0.812487	-0.000247	0.187580
	Al7525	Al	0.812501	0.249620	0.187620
	Al7526	Al	0.750036	0.250026	0.125086
	Al7527	Al	0.749995	0.000103	0.125062
	O7528	O	0.822715	0.041210	0.199576
	O7529	O	0.812182	0.124779	0.178308
	O7530	O	0.812869	0.374750	0.197010
	O7531	O	0.864798	0.041183	0.238099
	O7532	O	0.803223	0.040941	0.203008
	O7533	O	0.764836	0.040477	0.256276
	O7534	O	0.803185	0.209044	0.202940
	O7535	O	0.802293	0.290877	0.175595
	O7536	O	0.760295	0.290775	0.137004
	O7537	O	0.822754	0.209331	0.199601
	O7538	O	0.821790	0.290846	0.172199
	O7539	O	0.860237	0.290984	0.118897
	O7540	O	0.764779	0.208672	0.256234
	O7541	O	0.802243	0.458943	0.175599
	O7542	O	0.760176	0.458850	0.137167
	O7543	O	0.860188	0.459005	0.118872
	O7544	O	0.821788	0.458835	0.172214
	O7545	O	0.864866	0.209287	0.237983
	O7546	O	0.755206	0.375065	0.262293
	O7547	O	0.869870	0.125132	0.112817
	C7548	C	0.847970	0.213797	0.222616
	C7549	C	0.852244	0.124900	0.226521
	C7550	C	0.847945	0.036008	0.222682
	C7551	C	0.839551	0.036086	0.215001
	C7552	C	0.835293	0.124948	0.211052
	C7553	C	0.839576	0.213908	0.214922
	C7554	C	0.826288	0.124965	0.202740
	C7555	C	0.861242	0.125448	0.234897
	C7556	C	0.799925	0.125099	0.207332
	C7557	C	0.791719	0.125030	0.218851
	C7558	C	0.787740	0.213985	0.224178
	C7559	C	0.780124	0.213935	0.234832
	C7560	C	0.776267	0.124976	0.240329
	C7561	C	0.780251	0.036077	0.235020
	C7562	C	0.787862	0.036173	0.224374
	C7563	C	0.768050	0.124662	0.251864
	C7564	C	0.798715	0.374885	0.172412
	C7565	C	0.789704	0.374642	0.164130
	C7566	C	0.785397	0.463850	0.160341
	C7567	C	0.777032	0.463966	0.152641
	C7568	C	0.772790	0.374888	0.148594
	C7569	C	0.777101	0.285583	0.152366
	C7570	C	0.785481	0.285408	0.160085
	C7571	C	0.763797	0.374613	0.140204
	C7572	C	0.825049	0.374849	0.167826
	C7573	C	0.833266	0.374728	0.156299
	C7574	C	0.837163	0.285794	0.150786
	C7575	C	0.844803	0.285992	0.140188
	C7576	C	0.848754	0.375001	0.134825
	C7577	C	0.844837	0.463978	0.140341
	C7578	C	0.837211	0.463850	0.150923
	C7579	C	0.856965	0.375030	0.123332
	H7580	H	0.847747	0.216983	0.136018
	H7581	H	0.834204	0.216928	0.154931
	H7582	H	0.851211	0.282637	0.225616
	H7583	H	0.836325	0.282792	0.211914
	H7584	H	0.811937	0.124552	0.168102
	H7585	H	0.813389	0.374978	0.207159
	H7586	H	0.754908	0.374875	0.252052
	H7587	H	0.870255	0.126067	0.122967
	H7588	H	0.788800	0.216766	0.162974
	H7589	H	0.773908	0.216807	0.149133
	H7590	H	0.777092	0.282703	0.238854
	H7591	H	0.790635	0.282848	0.219909
	H7592	H	0.773781	0.533002	0.149666
	H7593	H	0.788628	0.532849	0.163433
	H7594	H	0.790837	-0.032904	0.220291
	H7595	H	0.777349	-0.033010	0.239190
	H7596	H	0.836291	-0.033117	0.212073
	H7597	H	0.851157	-0.032977	0.225741
	H7598	H	0.834288	0.532897	0.155169
	H7599	H	0.847804	0.533055	0.136203
	Al7600	Al	0.817968	-0.500394	0.334050
	Al7601	Al	0.817959	-0.250275	0.334075
	Al7602	Al	0.755518	-0.250425	0.271571
	Al7603	Al	0.755506	-0.500210	0.271643
	O7604	O	0.828141	-0.459179	0.346089
	O7605	O	0.817665	-0.375065	0.324725
	O7606	O	0.818311	-0.125098	0.343425
	O7607	O	0.870276	-0.459377	0.384507
	O7608	O	0.808634	-0.459318	0.349387
	O7609	O	0.769682	-0.459779	0.401708
	O7610	O	0.808600	-0.291345	0.349340
	O7611	O	0.807749	-0.208984	0.322105
	O7612	O	0.765736	-0.209316	0.283540
	O7613	O	0.828200	-0.291046	0.346048
	O7614	O	0.827251	-0.209110	0.318676
	O7615	O	0.865730	-0.208785	0.265487
	O7616	O	0.769709	-0.291833	0.401737
	O7617	O	0.807753	-0.040854	0.322046
	O7618	O	0.765751	-0.041199	0.283521
	O7619	O	0.865713	-0.040534	0.265465
	O7620	O	0.827337	-0.040898	0.318828
	O7621	O	0.870309	-0.291338	0.384369
	O7622	O	0.760026	-0.125422	0.407319
	O7623	O	0.875331	-0.374943	0.259371
	C7624	C	0.853426	-0.286354	0.369090
	C7625	C	0.857727	-0.375348	0.372933
	C7626	C	0.853421	-0.464364	0.369118
	C7627	C	0.845020	-0.464540	0.361456
	C7628	C	0.840753	-0.375615	0.357534
	C7629	C	0.845028	-0.286538	0.361451
	C7630	C	0.831723	-0.375305	0.349197
	C7631	C	0.866732	-0.375344	0.381268
	C7632	C	0.805326	-0.375419	0.353710
	C7633	C	0.797019	-0.375591	0.365057
	C7634	C	0.793018	-0.286825	0.370344
	C7635	C	0.785276	-0.286979	0.380775
	C7636	C	0.781336	-0.375797	0.386154
	C7637	C	0.785346	-0.464517	0.380893
	C7638	C	0.793085	-0.464423	0.370466
	C7639	C	0.772989	-0.375800	0.397407
	C7640	C	0.804188	-0.125181	0.318951
	C7641	C	0.795170	-0.125128	0.310685
	C7642	C	0.790893	-0.036169	0.306751
	C7643	C	0.782519	-0.036397	0.299070
	C7644	C	0.778249	-0.125515	0.295147
	C7645	C	0.782518	-0.214582	0.299093
	C7646	C	0.790894	-0.214336	0.306781
	C7647	C	0.769287	-0.125198	0.286712
	C7648	C	0.830546	-0.124961	0.314346
	C7649	C	0.838725	-0.125052	0.302780
	C7650	C	0.842685	-0.214103	0.297403
	C7651	C	0.850327	-0.214018	0.286778
	C7652	C	0.854234	-0.124860	0.281361
	C7653	C	0.850271	-0.035850	0.286728
	C7654	C	0.842622	-0.035885	0.297342
	C7655	C	0.862464	-0.124642	0.269855
	H7656	H	0.853299	-0.283017	0.282676
	H7657	H	0.839757	-0.283103	0.301532
	H7658	H	0.856660	-0.217262	0.372164
	H7659	H	0.841751	-0.217618	0.358487
	H7660	H	0.817439	-0.374593	0.314500
	H7661	H	0.818657	-0.124665	0.353698
	H7662	H	0.759637	-0.125310	0.397078
	H7663	H	0.875766	-0.374672	0.269584
	H7664	H	0.794188	-0.283087	0.309776
	H7665	H	0.779283	-0.283586	0.296035
	H7666	H	0.782254	-0.218245	0.384808
	H7667	H	0.795978	-0.217976	0.366217
	H7668	H	0.779297	0.032483	0.295919
	H7669	H	0.794146	0.032796	0.309716
	H7670	H	0.796112	-0.533169	0.366432
	H7671	H	0.782388	-0.533398	0.384964
	H7672	H	0.841757	-0.533470	0.358519
	H7673	H	0.856651	-0.533343	0.372197
	H7674	H	0.839645	0.033436	0.301479
	H7675	H	0.853208	0.033396	0.282578
	Al7676	Al	0.817960	-0.000261	0.334121
	Al7677	Al	0.817956	0.249706	0.334019
	Al7678	Al	0.755490	0.250086	0.271601
	Al7679	Al	0.755528	-0.000322	0.271590
	O7680	O	0.828165	0.040822	0.346136
	O7681	O	0.817672	0.124633	0.324770
	O7682	O	0.818336	0.374604	0.343426
	O7683	O	0.870307	0.040797	0.384429
	O7684	O	0.808620	0.040738	0.349396
	O7685	O	0.769676	0.040421	0.401700
	O7686	O	0.808565	0.208970	0.349268
	O7687	O	0.807812	0.290603	0.321921
	O7688	O	0.765700	0.290494	0.283651
	O7689	O	0.828170	0.208611	0.346030
	O7690	O	0.827288	0.290891	0.318680
	O7691	O	0.865742	0.290756	0.265407
	O7692	O	0.769734	0.208526	0.401780
	O7693	O	0.807776	0.458810	0.322053
	O7694	O	0.765663	0.458712	0.283708
	O7695	O	0.865748	0.458655	0.265411
	O7696	O	0.827330	0.458686	0.318693
	O7697	O	0.870294	0.208996	0.384451
	O7698	O	0.759984	0.374502	0.407419
	O7699	O	0.875405	0.124932	0.259368
	C7700	C	0.853419	0.213919	0.369118
	C7701	C	0.857724	0.124914	0.372981
	C7702	C	0.853442	0.035813	0.369067
	C7703	C	0.845068	0.035730	0.361384
	C7704	C	0.840757	0.124736	0.357507
	C7705	C	0.845035	0.213688	0.361460
	C7706	C	0.831743	0.124719	0.349198
	C7707	C	0.866749	0.124820	0.381280
	C7708	C	0.805309	0.124888	0.353646
	C7709	C	0.796985	0.124616	0.364983
	C7710	C	0.793014	0.213653	0.370322
	C7711	C	0.785290	0.213703	0.380807
	C7712	C	0.781336	0.124629	0.386133
	C7713	C	0.785339	0.035517	0.380867
	C7714	C	0.793079	0.035353	0.370405
	C7715	C	0.772999	0.124478	0.397415
	C7716	C	0.804241	0.374508	0.318851
	C7717	C	0.795230	0.374942	0.310535
	C7718	C	0.790912	0.464022	0.306682
	C7719	C	0.782510	0.463856	0.299066
	C7720	C	0.778229	0.374593	0.295200
	C7721	C	0.782519	0.285521	0.299103
	C7722	C	0.790915	0.285652	0.306746
	C7723	C	0.769241	0.374470	0.286814
	C7724	C	0.830572	0.374788	0.314260
	C7725	C	0.838788	0.374641	0.302758
	C7726	C	0.842679	0.285525	0.297328
	C7727	C	0.850318	0.285030	0.286696
	C7728	C	0.854258	0.374175	0.281324
	C7729	C	0.850351	0.463146	0.286737
	C7730	C	0.842709	0.463549	0.297356
	C7731	C	0.862476	0.374578	0.269806
	H7732	H	0.853231	0.215797	0.282529
	H7733	H	0.839705	0.216685	0.301436
	H7734	H	0.856658	0.282822	0.372110
	H7735	H	0.841767	0.282713	0.358483
	H7736	H	0.817456	0.124572	0.314449
	H7737	H	0.818833	0.374875	0.353638
	H7738	H	0.759817	0.374837	0.397189
	H7739	H	0.875821	0.125359	0.269612
	H7740	H	0.794174	0.217043	0.309788
	H7741	H	0.779237	0.216685	0.296225
	H7742	H	0.782307	0.282743	0.384851
	H7743	H	0.795992	0.282594	0.366260
	H7744	H	0.779236	0.532720	0.296066
	H7745	H	0.794147	0.532919	0.309673
	H7746	H	0.796080	-0.033683	0.366346
	H7747	H	0.782404	-0.033374	0.385012
	H7748	H	0.841813	-0.032976	0.358375
	H7749	H	0.856711	-0.033003	0.372058
	H7750	H	0.839798	0.532791	0.301519
	H7751	H	0.853288	0.532354	0.282593
	Al7752	Al	0.822709	-0.500503	0.479154
	Al7753	Al	0.822708	-0.250688	0.479250
	Al7754	Al	0.760197	-0.250562	0.416732
	Al7755	Al	0.760172	-0.500166	0.416810
	O7756	O	0.832756	-0.459498	0.491532
	O7757	O	0.822552	-0.375392	0.469852
	O7758	O	0.822883	-0.125528	0.488566
	O7759	O	0.875122	-0.459556	0.529479
	O7760	O	0.813008	-0.459665	0.493846
	O7761	O	0.770467	-0.459747	0.538611
	O7762	O	0.813016	-0.291268	0.493977
	O7763	O	0.812618	-0.209660	0.466983
	O7764	O	0.770264	-0.209560	0.429035
	O7765	O	0.832733	-0.291500	0.491561
	O7766	O	0.832241	-0.209618	0.464196
	O7767	O	0.871142	-0.209178	0.411777
	O7768	O	0.770527	-0.291724	0.538648
	O7769	O	0.812641	-0.041444	0.466911
	O7770	O	0.770264	-0.041369	0.429060
	O7771	O	0.871140	-0.041025	0.411781
	O7772	O	0.832222	-0.041333	0.464144
	O7773	O	0.875106	-0.291209	0.529411
	O7774	O	0.760397	-0.125519	0.542044
	O7775	O	0.880857	-0.375040	0.405850
	C7776	C	0.858152	-0.286265	0.514241
	C7777	C	0.862488	-0.375397	0.518085
	C7778	C	0.858138	-0.464618	0.514333
	C7779	C	0.849688	-0.464913	0.506825
	C7780	C	0.845375	-0.375756	0.502944
	C7781	C	0.849701	-0.286475	0.506726
	C7782	C	0.836319	-0.375539	0.494643
	C7783	C	0.871546	-0.375415	0.526321
	C7784	C	0.809481	-0.375662	0.497708
	C7785	C	0.800467	-0.375826	0.507601
	C7786	C	0.796130	-0.286921	0.512139
	C7787	C	0.787651	-0.286991	0.521025
	C7788	C	0.783303	-0.375989	0.525523
	C7789	C	0.787657	-0.464890	0.521042
	C7790	C	0.796137	-0.464941	0.512155
	C7791	C	0.774112	-0.375847	0.534998
	C7792	C	0.809057	-0.125595	0.463840
	C7793	C	0.799965	-0.125596	0.455671
	C7794	C	0.795658	-0.036447	0.451776
	C7795	C	0.787210	-0.036514	0.444271
	C7796	C	0.782867	-0.125649	0.440477
	C7797	C	0.787179	-0.214796	0.444329
	C7798	C	0.795626	-0.214872	0.451853
	C7799	C	0.773812	-0.125571	0.432203
	C7800	C	0.835533	-0.125566	0.459875
	C7801	C	0.843862	-0.125442	0.448561
	C7802	C	0.847841	-0.214207	0.443249
	C7803	C	0.855577	-0.213892	0.432788
	C7804	C	0.859499	-0.124893	0.427422
	C7805	C	0.855503	-0.036010	0.432735
	C7806	C	0.847775	-0.036218	0.443201
	C7807	C	0.867834	-0.124953	0.416088
	H7808	H	0.858597	-0.282933	0.428718
	H7809	H	0.844932	-0.283243	0.447383
	H7810	H	0.861428	-0.217213	0.517171
	H7811	H	0.846419	-0.217669	0.503660
	H7812	H	0.822450	-0.374605	0.459598
	H7813	H	0.822957	-0.124921	0.498815
	H7814	H	0.760768	-0.124929	0.531708
	H7815	H	0.881318	-0.375656	0.416019
	H7816	H	0.798889	-0.283682	0.454848
	H7817	H	0.783898	-0.283900	0.441396
	H7818	H	0.784364	-0.217888	0.524458
	H7819	H	0.799385	-0.217964	0.508635
	H7820	H	0.783943	0.032473	0.441288
	H7821	H	0.798945	0.032537	0.454689
	H7822	H	0.799383	-0.533751	0.508669
	H7823	H	0.784373	-0.533934	0.524454
	H7824	H	0.846440	-0.533981	0.503879
	H7825	H	0.861406	-0.533472	0.517351
	H7826	H	0.844773	0.032715	0.447282
	H7827	H	0.858450	0.033071	0.428641
	Al7828	Al	0.822696	-0.000220	0.479180
	Al7829	Al	0.822690	0.249185	0.479210
	Al7830	Al	0.760187	0.249329	0.416770
	Al7831	Al	0.760195	-0.000261	0.416754
	O7832	O	0.832721	0.040534	0.491535
	O7833	O	0.822466	0.124727	0.469795
	O7834	O	0.822876	0.374411	0.488551
	O7835	O	0.875074	0.040841	0.529380
	O7836	O	0.812941	0.040303	0.493868
	O7837	O	0.770470	0.040875	0.538745
	O7838	O	0.812974	0.208325	0.493843
	O7839	O	0.812594	0.290360	0.466878
	O7840	O	0.770195	0.290328	0.429193
	O7841	O	0.832737	0.208672	0.491595
	O7842	O	0.832211	0.290565	0.464220
	O7843	O	0.871184	0.290991	0.411788
	O7844	O	0.770534	0.208734	0.538816
	O7845	O	0.812594	0.458597	0.466865
	O7846	O	0.770256	0.458577	0.429012
	O7847	O	0.871166	0.459005	0.411851
	O7848	O	0.832236	0.458704	0.464165
	O7849	O	0.875064	0.208959	0.529388
	O7850	O	0.760427	0.374471	0.542080
	O7851	O	0.880843	0.124843	0.405846
	C7852	C	0.858109	0.213607	0.514274
	C7853	C	0.862424	0.124657	0.518098
	C7854	C	0.858115	0.035635	0.514302
	C7855	C	0.849674	0.035572	0.506779
	C7856	C	0.845356	0.124526	0.502937
	C7857	C	0.849676	0.213620	0.506730
	C7858	C	0.836297	0.124565	0.494670
	C7859	C	0.871494	0.124798	0.526323
	C7860	C	0.809428	0.124441	0.497701
	C7861	C	0.800412	0.124684	0.507595
	C7862	C	0.796091	0.213643	0.512161
	C7863	C	0.787653	0.213827	0.521098
	C7864	C	0.783281	0.124959	0.525631
	C7865	C	0.787593	0.036190	0.521066
	C7866	C	0.796038	0.035842	0.512130
	C7867	C	0.774135	0.124730	0.535199
	C7868	C	0.809042	0.374487	0.463766
	C7869	C	0.799960	0.374613	0.455580
	C7870	C	0.795642	0.463799	0.451784
	C7871	C	0.787168	0.464015	0.444287
	C7872	C	0.782855	0.374840	0.440452
	C7873	C	0.787150	0.285777	0.444328
	C7874	C	0.795611	0.285480	0.451834
	C7875	C	0.773777	0.374632	0.432251
	C7876	C	0.835516	0.374411	0.459868
	C7877	C	0.843857	0.374526	0.448552
	C7878	C	0.847833	0.285479	0.443255
	C7879	C	0.855584	0.285547	0.432801
	C7880	C	0.859534	0.374638	0.427449
	C7881	C	0.855549	0.463595	0.432738
	C7882	C	0.847804	0.463609	0.443187
	C7883	C	0.867866	0.375057	0.416127
	H7884	H	0.858568	0.216417	0.428744
	H7885	H	0.844851	0.216424	0.447327
	H7886	H	0.861392	0.282361	0.517252
	H7887	H	0.846427	0.282527	0.503728
	H7888	H	0.822068	0.124532	0.459552
	H7889	H	0.823189	0.374476	0.498795
	H7890	H	0.760850	0.374372	0.531738
	H7891	H	0.881207	0.124601	0.416065
	H7892	H	0.798833	0.216484	0.454830
	H7893	H	0.783849	0.216880	0.441384
	H7894	H	0.784417	0.282910	0.524605
	H7895	H	0.799374	0.282506	0.508728
	H7896	H	0.783913	0.532797	0.441321
	H7897	H	0.798914	0.532523	0.454780
	H7898	H	0.799292	-0.033186	0.508641
	H7899	H	0.784325	-0.032649	0.524548
	H7900	H	0.846379	-0.033275	0.503806
	H7901	H	0.861356	-0.033187	0.517282
	H7902	H	0.844817	0.532724	0.447182
	H7903	H	0.858503	0.532668	0.428639
	Al7904	Al	0.822442	-0.500890	0.614149
	Al7905	Al	0.822424	-0.249911	0.614211
	Al7906	Al	0.759947	-0.251251	0.551589
	Al7907	Al	0.759956	-0.500095	0.551636
	O7908	O	0.831805	-0.459333	0.627763
	O7909	O	0.822860	-0.375451	0.604670
	O7910	O	0.821592	-0.125424	0.623674
	O7911	O	0.875608	-0.460126	0.662559
	O7912	O	0.810948	-0.460051	0.625385
	O7913	O	0.761760	-0.458316	0.614977
	O7914	O	0.811032	-0.291563	0.625585
	O7915	O	0.813109	-0.209851	0.600081
	O7916	O	0.769308	-0.209820	0.565235
	O7917	O	0.831867	-0.291143	0.627636
	O7918	O	0.832957	-0.209281	0.601235
	O7919	O	0.875486	-0.209604	0.556468
	O7920	O	0.761806	-0.290183	0.615012
	O7921	O	0.813132	-0.041685	0.599966
	O7922	O	0.769314	-0.041657	0.565272
	O7923	O	0.875432	-0.041372	0.556351
	O7924	O	0.832981	-0.041287	0.601238
	O7925	O	0.875627	-0.292127	0.662647
	O7926	O	0.751098	-0.124794	0.615522
	O7927	O	0.885335	-0.375384	0.551152
	C7928	C	0.858289	-0.286180	0.648018
	C7929	C	0.862765	-0.375822	0.651517
	C7930	C	0.858224	-0.465234	0.648034
	C7931	C	0.849451	-0.465229	0.641398
	C7932	C	0.844926	-0.375498	0.638056
	C7933	C	0.849507	-0.286185	0.641392
	C7934	C	0.835541	-0.375270	0.630573
	C7935	C	0.872011	-0.375978	0.659480
	C7936	C	0.806806	-0.375511	0.624874
	C7937	C	0.796203	-0.374858	0.622939
	C7938	C	0.791264	-0.284867	0.621461
	C7939	C	0.781598	-0.284772	0.618558
	C7940	C	0.776614	-0.374770	0.617139
	C7941	C	0.781579	-0.464690	0.618501
	C7942	C	0.791242	-0.464769	0.621381
	C7943	C	0.765988	-0.374361	0.615514
	C7944	C	0.809512	-0.125830	0.596881
	C7945	C	0.800231	-0.125905	0.588975
	C7946	C	0.795732	-0.036338	0.585560
	C7947	C	0.786928	-0.036520	0.578954
	C7948	C	0.782410	-0.126138	0.575608
	C7949	C	0.786932	-0.215740	0.578912
	C7950	C	0.795747	-0.215701	0.585511
	C7951	C	0.773012	-0.125786	0.568150
	C7952	C	0.836601	-0.125210	0.597620
	C7953	C	0.845762	-0.125404	0.588107
	C7954	C	0.850114	-0.214499	0.583598
	C7955	C	0.858556	-0.214515	0.574705
	C7956	C	0.862909	-0.125506	0.570116
	C7957	C	0.858582	-0.036367	0.574726
	C7958	C	0.850142	-0.036416	0.583631
	C7959	C	0.871907	-0.125425	0.560198
	H7960	H	0.861808	-0.283456	0.571160
	H7961	H	0.846834	-0.283300	0.587042
	H7962	H	0.861698	-0.216507	0.650583
	H7963	H	0.846128	-0.216336	0.638760
	H7964	H	0.823309	-0.375173	0.594346
	H7965	H	0.820238	-0.125753	0.633873
	H7966	H	0.752628	-0.124812	0.605406
	H7967	H	0.885223	-0.375464	0.561382
	H7968	H	0.799128	-0.285567	0.588058
	H7969	H	0.783539	-0.285689	0.576350
	H7970	H	0.777860	-0.214574	0.617481
	H7971	H	0.794996	-0.215164	0.622641
	H7972	H	0.783540	0.033333	0.576445
	H7973	H	0.799101	0.033805	0.588156
	H7974	H	0.794938	-0.535154	0.622489
	H7975	H	0.777854	-0.534790	0.617386
	H7976	H	0.846043	-0.534868	0.638830
	H7977	H	0.861603	-0.535327	0.650597
	H7978	H	0.846882	0.032284	0.587153
	H7979	H	0.861856	0.032633	0.571268
	Al7980	Al	0.822408	-0.000905	0.614184
	Al7981	Al	0.822402	0.249711	0.614272
	Al7982	Al	0.759910	0.249144	0.551743
	Al7983	Al	0.759934	-0.000105	0.551676
	O7984	O	0.831779	0.040420	0.627792
	O7985	O	0.822897	0.124493	0.604630
	O7986	O	0.821542	0.374596	0.623655
	O7987	O	0.875646	0.040410	0.662503
	O7988	O	0.810936	0.039790	0.625350
	O7989	O	0.761739	0.040741	0.615001
	O7990	O	0.810991	0.208060	0.625524
	O7991	O	0.813076	0.290201	0.600147
	O7992	O	0.769267	0.290364	0.565281
	O7993	O	0.831778	0.208628	0.627839
	O7994	O	0.832929	0.290437	0.601192
	O7995	O	0.875420	0.290108	0.556336
	O7996	O	0.761781	0.209198	0.614967
	O7997	O	0.813141	0.458218	0.599924
	O7998	O	0.769354	0.458405	0.565187
	O7999	O	0.875433	0.458384	0.556408
	O8000	O	0.832978	0.458357	0.601295
	O8001	O	0.875500	0.208460	0.662725
	O8002	O	0.751194	0.375517	0.615450
	O8003	O	0.885308	0.124524	0.550996
	C8004	C	0.858216	0.213898	0.648051
	C8005	C	0.862709	0.124145	0.651559
	C8006	C	0.858236	0.034585	0.647946
	C8007	C	0.849446	0.034779	0.641327
	C8008	C	0.844871	0.124390	0.638158
	C8009	C	0.849424	0.214083	0.641461
	C8010	C	0.835466	0.124417	0.630724
	C8011	C	0.871970	0.124326	0.659462
	C8012	C	0.806746	0.124018	0.624828
	C8013	C	0.796170	0.124089	0.622912
	C8014	C	0.791218	0.214116	0.621369
	C8015	C	0.781558	0.214235	0.618526
	C8016	C	0.776568	0.124408	0.617139
	C8017	C	0.781524	0.034376	0.618522
	C8018	C	0.791197	0.034276	0.621360
	C8019	C	0.765967	0.124910	0.615552
	C8020	C	0.809508	0.374130	0.596918
	C8021	C	0.800251	0.373759	0.589004
	C8022	C	0.795777	0.463397	0.585447
	C8023	C	0.786987	0.463496	0.578840
	C8024	C	0.782416	0.373869	0.575567
	C8025	C	0.786965	0.284140	0.578866
	C8026	C	0.795760	0.284063	0.585476
	C8027	C	0.773013	0.374312	0.568169
	C8028	C	0.836594	0.374469	0.597643
	C8029	C	0.845780	0.374214	0.588181
	C8030	C	0.850080	0.285258	0.583583
	C8031	C	0.858528	0.285302	0.574641
	C8032	C	0.862904	0.374170	0.570136
	C8033	C	0.858594	0.463200	0.574714
	C8034	C	0.850151	0.463119	0.583659
	C8035	C	0.871895	0.374035	0.560175
	H8036	H	0.861715	0.216136	0.571010
	H8037	H	0.846789	0.216346	0.586972
	H8038	H	0.861646	0.283858	0.650522
	H8039	H	0.846034	0.283904	0.638884
	H8040	H	0.823368	0.124511	0.594274
	H8041	H	0.820063	0.374990	0.633778
	H8042	H	0.752913	0.375221	0.605280
	H8043	H	0.885304	0.124390	0.561269
	H8044	H	0.799168	0.214163	0.588058
	H8045	H	0.783574	0.214262	0.576284
	H8046	H	0.777830	0.284480	0.617410
	H8047	H	0.794929	0.284279	0.622526
	H8048	H	0.783600	0.533035	0.576226
	H8049	H	0.799180	0.533262	0.587949
	H8050	H	0.794916	-0.035790	0.622508
	H8051	H	0.777787	-0.035985	0.617406
	H8052	H	0.846049	-0.034817	0.638648
	H8053	H	0.861658	-0.035247	0.650297
	H8054	H	0.846897	0.532318	0.587130
	H8055	H	0.861840	0.532129	0.571148
	Al8056	Al	0.812439	-0.499662	0.687581
	Al8057	Al	0.812494	-0.249775	0.687518
	Al8058	Al	0.749989	-0.249507	0.625134
	Al8059	Al	0.749975	-0.499301	0.624951
	O8060	O	0.821335	-0.458628	0.702306
	O8061	O	0.813619	-0.374716	0.677992
	O8062	O	0.811283	-0.124972	0.697040
	O8063	O	0.866022	-0.458906	0.735316
	O8064	O	0.800651	-0.458669	0.697650
	O8065	O	0.751507	-0.458494	0.687199
	O8066	O	0.800688	-0.290470	0.697556
	O8067	O	0.803552	-0.208660	0.672839
	O8068	O	0.758863	-0.208577	0.639846
	O8069	O	0.821392	-0.290851	0.702248
	O8070	O	0.824286	-0.209007	0.677474
	O8071	O	0.873418	-0.210107	0.687861
	O8072	O	0.751514	-0.290065	0.687018
	O8073	O	0.803642	-0.040851	0.672695
	O8074	O	0.758883	-0.040788	0.639741
	O8075	O	0.873484	-0.041762	0.688021
	O8076	O	0.824312	-0.040676	0.677595
	O8077	O	0.866097	-0.290921	0.735259
	O8078	O	0.740909	-0.124142	0.688770
	O8079	O	0.884066	-0.375971	0.686244
	C8080	C	0.848195	-0.284777	0.721772
	C8081	C	0.852870	-0.374493	0.724961
	C8082	C	0.848207	-0.464273	0.721875
	C8083	C	0.839199	-0.464460	0.715906
	C8084	C	0.834546	-0.374805	0.712691
	C8085	C	0.839194	-0.284928	0.715787
	C8086	C	0.825071	-0.374729	0.705267
	C8087	C	0.862353	-0.374799	0.732289
	C8088	C	0.796468	-0.374385	0.697019
	C8089	C	0.785866	-0.374272	0.695358
	C8090	C	0.780884	-0.284143	0.693958
	C8091	C	0.771219	-0.284255	0.691087
	C8092	C	0.766287	-0.374259	0.689598
	C8093	C	0.771246	-0.464315	0.691009
	C8094	C	0.780914	-0.464323	0.693895
	C8095	C	0.755725	-0.374299	0.687674
	C8096	C	0.799883	-0.124793	0.669818
	C8097	C	0.790375	-0.124586	0.662439
	C8098	C	0.785738	-0.034847	0.659292
	C8099	C	0.776719	-0.034911	0.653320
	C8100	C	0.772053	-0.124613	0.650180
	C8101	C	0.776701	-0.214235	0.653328
	C8102	C	0.785717	-0.214273	0.659299
	C8103	C	0.762581	-0.124543	0.642767
	C8104	C	0.828515	-0.124938	0.678047
	C8105	C	0.839111	-0.124903	0.679672
	C8106	C	0.844060	-0.214886	0.681071
	C8107	C	0.853713	-0.215153	0.683945
	C8108	C	0.858686	-0.125226	0.685423
	C8109	C	0.853745	-0.035085	0.684013
	C8110	C	0.844091	-0.034910	0.681129
	C8111	C	0.869246	-0.125739	0.687390
	H8112	H	0.857456	-0.285348	0.684987
	H8113	H	0.840328	-0.284894	0.679810
	H8114	H	0.851654	-0.214476	0.724029
	H8115	H	0.835699	-0.214778	0.713499
	H8116	H	0.815155	-0.374867	0.667822
	H8117	H	0.809472	-0.125518	0.707107
	H8118	H	0.742367	-0.123990	0.678654
	H8119	H	0.882762	-0.376188	0.696394
	H8120	H	0.789170	-0.284481	0.661605
	H8121	H	0.773243	-0.284630	0.651058
	H8122	H	0.767472	-0.214210	0.690050
	H8123	H	0.784585	-0.213855	0.695107
	H8124	H	0.773278	0.035299	0.651045
	H8125	H	0.789189	0.035362	0.661544
	H8126	H	0.784660	-0.534470	0.695041
	H8127	H	0.767549	-0.534559	0.689917
	H8128	H	0.835737	-0.534529	0.713697
	H8129	H	0.851661	-0.534331	0.724199
	H8130	H	0.840399	0.035161	0.679922
	H8131	H	0.857513	0.034881	0.685125
	Al8132	Al	0.812495	0.000132	0.687592
	Al8133	Al	0.812475	0.250171	0.687572
	Al8134	Al	0.749969	0.250392	0.624990
	Al8135	Al	0.749965	0.000005	0.625044
	O8136	O	0.821340	0.041160	0.702409
	O8137	O	0.813636	0.125304	0.678055
	O8138	O	0.811257	0.375237	0.697125
	O8139	O	0.866115	0.041345	0.735199
	O8140	O	0.800668	0.040577	0.697586
	O8141	O	0.751498	0.041581	0.687087
	O8142	O	0.800699	0.208936	0.697716
	O8143	O	0.803470	0.291483	0.672962
	O8144	O	0.758869	0.291711	0.639739
	O8145	O	0.821370	0.208814	0.702270
	O8146	O	0.824224	0.291424	0.677392
	O8147	O	0.873380	0.290407	0.687909
	O8148	O	0.751523	0.209679	0.687079
	O8149	O	0.803568	0.459387	0.672786
	O8150	O	0.758871	0.459834	0.639732
	O8151	O	0.873439	0.458520	0.688073
	O8152	O	0.824201	0.459587	0.677458
	O8153	O	0.866075	0.209303	0.735306
	O8154	O	0.740931	0.375927	0.688880
	O8155	O	0.884009	0.124005	0.686134
	C8156	C	0.848237	0.214800	0.721779
	C8157	C	0.852901	0.125178	0.724901
	C8158	C	0.848219	0.035467	0.721823
	C8159	C	0.839213	0.035348	0.715857
	C8160	C	0.834546	0.124910	0.712692
	C8161	C	0.839227	0.214720	0.715802
	C8162	C	0.825079	0.125032	0.705312
	C8163	C	0.862371	0.125358	0.732325
	C8164	C	0.796492	0.124885	0.697087
	C8165	C	0.785893	0.125330	0.695441
	C8166	C	0.780939	0.215273	0.694135
	C8167	C	0.771287	0.215373	0.691251
	C8168	C	0.766308	0.125432	0.689651
	C8169	C	0.771276	0.035471	0.690992
	C8170	C	0.780932	0.035332	0.693863
	C8171	C	0.755724	0.125625	0.687706
	C8172	C	0.799796	0.375615	0.669936
	C8173	C	0.790330	0.375800	0.662532
	C8174	C	0.785703	0.465557	0.659323
	C8175	C	0.776693	0.465574	0.653275
	C8176	C	0.772049	0.375852	0.650185
	C8177	C	0.776717	0.286187	0.653251
	C8178	C	0.785716	0.286200	0.659298
	C8179	C	0.762574	0.375754	0.642726
	C8180	C	0.828419	0.375581	0.677932
	C8181	C	0.839041	0.375694	0.679583
	C8182	C	0.844013	0.285773	0.680807
	C8183	C	0.853662	0.285400	0.683742
	C8184	C	0.858619	0.375119	0.685498
	C8185	C	0.853694	0.465195	0.684114
	C8186	C	0.844035	0.465406	0.681157
	C8187	C	0.869205	0.374630	0.687379
	H8188	H	0.857377	0.215231	0.684778
	H8189	H	0.840299	0.215688	0.679563
	H8190	H	0.851746	0.285048	0.723984
	H8191	H	0.835803	0.284903	0.713416
	H8192	H	0.815222	0.125417	0.667927
	H8193	H	0.809678	0.375257	0.707305
	H8194	H	0.742333	0.375877	0.678755
	H8195	H	0.882571	0.123195	0.696231
	H8196	H	0.789165	0.215698	0.661554
	H8197	H	0.773264	0.215898	0.650911
	H8198	H	0.767552	0.285445	0.690243
	H8199	H	0.784673	0.285213	0.695389
	H8200	H	0.773257	0.535736	0.651010
	H8201	H	0.789156	0.535805	0.661569
	H8202	H	0.784654	-0.034895	0.694912
	H8203	H	0.767531	-0.034552	0.689783
	H8204	H	0.835777	-0.034964	0.713521
	H8205	H	0.851725	-0.034936	0.724059
	H8206	H	0.840292	0.535520	0.680175
	H8207	H	0.857411	0.535104	0.685431
	Al8208	Al	0.802559	-0.498794	0.760775
	Al8209	Al	0.802569	-0.250034	0.760800
	Al8210	Al	0.740041	-0.249038	0.698183
	Al8211	Al	0.740072	-0.500077	0.698401
	O8212	O	0.811889	-0.458207	0.774941
	O8213	O	0.803427	-0.374357	0.751297
	O8214	O	0.802051	-0.124363	0.770347
	O8215	O	0.855686	-0.458794	0.809665
	O8216	O	0.792000	-0.458225	0.773742
	O8217	O	0.749567	-0.458893	0.818594
	O8218	O	0.791984	-0.290329	0.773708
	O8219	O	0.793109	-0.208591	0.747247
	O8220	O	0.749343	-0.208817	0.712380
	O8221	O	0.811956	-0.290146	0.774809
	O8222	O	0.813970	-0.208221	0.749458
	O8223	O	0.863203	-0.208717	0.760176
	O8224	O	0.749580	-0.290605	0.818581
	O8225	O	0.793145	-0.040269	0.747259
	O8226	O	0.749325	-0.040706	0.712454
	O8227	O	0.863165	-0.040547	0.760173
	O8228	O	0.814028	-0.039826	0.749663
	O8229	O	0.855752	-0.290572	0.809640
	O8230	O	0.739641	-0.124428	0.823927
	O8231	O	0.873722	-0.374652	0.759587
	C8232	C	0.838102	-0.284835	0.795962
	C8233	C	0.842581	-0.374516	0.799423
	C8234	C	0.838026	-0.464128	0.796155
	C8235	C	0.829243	-0.464033	0.789535
	C8236	C	0.824777	-0.374325	0.785996
	C8237	C	0.829317	-0.284839	0.789349
	C8238	C	0.815526	-0.374379	0.778026
	C8239	C	0.851996	-0.374741	0.806816
	C8240	C	0.788366	-0.374247	0.777376
	C8241	C	0.779206	-0.374128	0.786839
	C8242	C	0.774884	-0.285110	0.791420
	C8243	C	0.766440	-0.285583	0.800359
	C8244	C	0.762121	-0.374774	0.804876
	C8245	C	0.766405	-0.463707	0.800159
	C8246	C	0.774849	-0.463469	0.791246
	C8247	C	0.753121	-0.374815	0.814785
	C8248	C	0.789435	-0.124367	0.744378
	C8249	C	0.780031	-0.124393	0.736933
	C8250	C	0.775505	-0.034778	0.733524
	C8251	C	0.766723	-0.034808	0.726916
	C8252	C	0.762186	-0.124577	0.723504
	C8253	C	0.766633	-0.214280	0.727190
	C8254	C	0.775405	-0.214096	0.733827
	C8255	C	0.752941	-0.124800	0.715585
	C8256	C	0.818216	-0.124209	0.750126
	C8257	C	0.828775	-0.124474	0.752058
	C8258	C	0.833726	-0.214460	0.753509
	C8259	C	0.843377	-0.214715	0.756464
	C8260	C	0.848357	-0.124937	0.757965
	C8261	C	0.843364	-0.035138	0.756646
	C8262	C	0.833721	-0.034773	0.753720
	C8263	C	0.858962	-0.124867	0.759636
	H8264	H	0.847109	-0.284799	0.757541
	H8265	H	0.830007	-0.284225	0.752267
	H8266	H	0.841537	-0.215092	0.798395
	H8267	H	0.825974	-0.214699	0.786694
	H8268	H	0.804737	-0.374269	0.741178
	H8269	H	0.801468	-0.124473	0.780648
	H8270	H	0.739450	-0.124102	0.813717
	H8271	H	0.872103	-0.374012	0.769672
	H8272	H	0.778733	-0.283834	0.736604
	H8273	H	0.763193	-0.284088	0.724720
	H8274	H	0.763189	-0.216876	0.803918
	H8275	H	0.778176	-0.216061	0.788024
	H8276	H	0.763367	0.034991	0.724247
	H8277	H	0.778956	0.034814	0.736034
	H8278	H	0.778121	-0.532577	0.787735
	H8279	H	0.763117	-0.532926	0.803562
	H8280	H	0.825856	-0.533864	0.786986
	H8281	H	0.841415	-0.534080	0.798778
	H8282	H	0.830003	0.035286	0.752649
	H8283	H	0.847064	0.034797	0.757922
	Al8284	Al	0.802562	0.001120	0.760825
	Al8285	Al	0.802551	0.250241	0.760759
	Al8286	Al	0.740046	0.250942	0.698282
	Al8287	Al	0.740046	0.000357	0.698312
	O8288	O	0.811801	0.042024	0.775053
	O8289	O	0.803439	0.125614	0.751357
	O8290	O	0.802046	0.375586	0.770355
	O8291	O	0.855629	0.041217	0.809768
	O8292	O	0.791951	0.041451	0.773711
	O8293	O	0.749548	0.041072	0.818675
	O8294	O	0.791958	0.209328	0.773726
	O8295	O	0.793221	0.291806	0.747133
	O8296	O	0.749408	0.291579	0.712402
	O8297	O	0.811898	0.210027	0.774838
	O8298	O	0.813997	0.291747	0.749514
	O8299	O	0.863230	0.291165	0.760188
	O8300	O	0.749507	0.209317	0.818638
	O8301	O	0.793192	0.459799	0.747213
	O8302	O	0.749328	0.459825	0.712648
	O8303	O	0.863198	0.459340	0.760212
	O8304	O	0.814018	0.460097	0.749635
	O8305	O	0.855681	0.209339	0.809673
	O8306	O	0.739645	0.375412	0.823955
	O8307	O	0.873807	0.125247	0.759542
	C8308	C	0.838033	0.215294	0.796031
	C8309	C	0.842556	0.125721	0.799378
	C8310	C	0.838012	0.036229	0.796039
	C8311	C	0.829215	0.036310	0.789433
	C8312	C	0.824705	0.125880	0.785986
	C8313	C	0.829234	0.215509	0.789426
	C8314	C	0.815454	0.126060	0.778104
	C8315	C	0.851950	0.125494	0.806830
	C8316	C	0.788330	0.125456	0.777372
	C8317	C	0.779177	0.125645	0.786941
	C8318	C	0.774886	0.214554	0.791585
	C8319	C	0.766446	0.214609	0.800515
	C8320	C	0.762098	0.125493	0.804987
	C8321	C	0.766341	0.036619	0.800269
	C8322	C	0.774783	0.036779	0.791331
	C8323	C	0.753062	0.125369	0.814858
	C8324	C	0.789502	0.375710	0.744300
	C8325	C	0.780097	0.375717	0.736854
	C8326	C	0.775543	0.465198	0.733559
	C8327	C	0.766734	0.465140	0.727002
	C8328	C	0.762232	0.375498	0.723551
	C8329	C	0.766725	0.285816	0.727083
	C8330	C	0.775535	0.285993	0.733644
	C8331	C	0.752972	0.375722	0.715662
	C8332	C	0.818221	0.375719	0.750198
	C8333	C	0.828809	0.375426	0.752119
	C8334	C	0.833760	0.285532	0.753620
	C8335	C	0.843427	0.285445	0.756493
	C8336	C	0.848400	0.375202	0.757935
	C8337	C	0.843437	0.465281	0.756548
	C8338	C	0.833754	0.465290	0.753678
	C8339	C	0.859005	0.375188	0.759611
	H8340	H	0.847133	0.215313	0.757580
	H8341	H	0.830043	0.215150	0.752509
	H8342	H	0.841463	0.284867	0.798529
	H8343	H	0.825893	0.285555	0.786813
	H8344	H	0.804923	0.125348	0.741266
	H8345	H	0.801531	0.375770	0.780701
	H8346	H	0.739506	0.375644	0.813742
	H8347	H	0.872235	0.125655	0.769722
	H8348	H	0.778900	0.216289	0.736325
	H8349	H	0.763335	0.215920	0.724641
	H8350	H	0.763204	0.283643	0.804059
	H8351	H	0.778155	0.283631	0.788209
	H8352	H	0.763357	0.535054	0.724481
	H8353	H	0.778931	0.534853	0.736108
	H8354	H	0.778001	-0.031982	0.787694
	H8355	H	0.763012	-0.032262	0.803610
	H8356	H	0.825868	-0.033624	0.786844
	H8357	H	0.841412	-0.033641	0.798572
	H8358	H	0.830043	0.535323	0.752597
	H8359	H	0.847161	0.535277	0.757732
	Al8360	Al	0.802337	-0.499472	0.895882
	Al8361	Al	0.802328	-0.249457	0.895754
	Al8362	Al	0.739842	-0.249489	0.833285
	Al8363	Al	0.739852	-0.499521	0.833344
	O8364	O	0.812428	-0.458774	0.908127
	O8365	O	0.802148	-0.374603	0.886479
	O8366	O	0.802533	-0.124607	0.905148
	O8367	O	0.854789	-0.458553	0.946000
	O8368	O	0.792847	-0.458755	0.910931
	O8369	O	0.753888	-0.458377	0.963167
	O8370	O	0.792821	-0.290686	0.910816
	O8371	O	0.792260	-0.208512	0.883510
	O8372	O	0.749927	-0.208571	0.845607
	O8373	O	0.812447	-0.290562	0.908049
	O8374	O	0.812094	-0.208607	0.881088
	O8375	O	0.854445	-0.208538	0.836173
	O8376	O	0.753873	-0.290308	0.963109
	O8377	O	0.792253	-0.040434	0.883516
	O8378	O	0.749939	-0.040536	0.845617
	O8379	O	0.854547	-0.040759	0.836233
	O8380	O	0.812084	-0.040230	0.881190
	O8381	O	0.854747	-0.290425	0.946017
	O8382	O	0.744174	-0.124873	0.969202
	O8383	O	0.864540	-0.374618	0.832915
	C8384	C	0.837864	-0.285396	0.930728
	C8385	C	0.842158	-0.374688	0.934581
	C8386	C	0.837839	-0.463979	0.930740
	C8387	C	0.829391	-0.463828	0.923203
	C8388	C	0.825096	-0.374444	0.919358
	C8389	C	0.829419	-0.285154	0.923169
	C8390	C	0.816019	-0.374495	0.911190
	C8391	C	0.851201	-0.374485	0.942844
	C8392	C	0.789521	-0.374763	0.915180
	C8393	C	0.781205	-0.374637	0.926494
	C8394	C	0.777208	-0.285799	0.931731
	C8395	C	0.769473	-0.285826	0.942164
	C8396	C	0.765500	-0.374562	0.947517
	C8397	C	0.769500	-0.463534	0.942293
	C8398	C	0.777231	-0.463545	0.931862
	C8399	C	0.757179	-0.374368	0.958840
	C8400	C	0.788708	-0.124540	0.880349
	C8401	C	0.779659	-0.124296	0.872093
	C8402	C	0.775399	-0.035576	0.868085
	C8403	C	0.766957	-0.035584	0.860565
	C8404	C	0.762582	-0.124458	0.856903
	C8405	C	0.766828	-0.213179	0.860923
	C8406	C	0.775270	-0.213260	0.868434
	C8407	C	0.753539	-0.124605	0.848681
	C8408	C	0.815621	-0.124163	0.877344
	C8409	C	0.824592	-0.124016	0.867391
	C8410	C	0.828932	-0.213223	0.862868
	C8411	C	0.837364	-0.213395	0.853914
	C8412	C	0.841694	-0.124391	0.849319
	C8413	C	0.837331	-0.035221	0.853793
	C8414	C	0.828894	-0.035047	0.862725
	C8415	C	0.850865	-0.124434	0.839824
	H8416	H	0.840662	-0.282335	0.850505
	H8417	H	0.825704	-0.282103	0.866486
	H8418	H	0.841142	-0.216301	0.933720
	H8419	H	0.826171	-0.215664	0.920208
	H8420	H	0.802090	-0.374278	0.876199
	H8421	H	0.802843	-0.124845	0.915381
	H8422	H	0.743826	-0.124861	0.958973
	H8423	H	0.863977	-0.374124	0.843305
	H8424	H	0.778520	-0.282142	0.871473
	H8425	H	0.763531	-0.282134	0.857978
	H8426	H	0.766466	-0.216987	0.946228
	H8427	H	0.780188	-0.216933	0.927577
	H8428	H	0.763743	0.033021	0.857416
	H8429	H	0.778739	0.033295	0.870899
	H8430	H	0.780238	-0.532691	0.927854
	H8431	H	0.766518	-0.532406	0.946435
	H8432	H	0.826110	-0.532945	0.920255
	H8433	H	0.841051	-0.533295	0.933772
	H8434	H	0.825628	0.033965	0.866203
	H8435	H	0.840605	0.033605	0.850290
	Al8436	Al	0.802303	0.000446	0.895887
	Al8437	Al	0.802318	0.250402	0.895771
	Al8438	Al	0.739825	0.250160	0.833330
	Al8439	Al	0.739803	0.000362	0.833355
	O8440	O	0.812399	0.041003	0.908177
	O8441	O	0.802186	0.125170	0.886503
	O8442	O	0.802475	0.375322	0.905231
	O8443	O	0.854818	0.041319	0.945935
	O8444	O	0.792816	0.041088	0.910936
	O8445	O	0.753857	0.040587	0.963233
	O8446	O	0.792787	0.209071	0.910843
	O8447	O	0.792253	0.291379	0.883494
	O8448	O	0.749948	0.291425	0.845555
	O8449	O	0.812402	0.209215	0.908134
	O8450	O	0.812069	0.291264	0.881113
	O8451	O	0.854464	0.291836	0.836109
	O8452	O	0.753850	0.208689	0.963194
	O8453	O	0.792275	0.459665	0.883477
	O8454	O	0.749945	0.459787	0.845617
	O8455	O	0.854445	0.459892	0.836212
	O8456	O	0.812052	0.459729	0.881121
	O8457	O	0.854761	0.209747	0.945941
	O8458	O	0.744231	0.375010	0.969208
	O8459	O	0.864582	0.125455	0.832806
	C8460	C	0.837874	0.214262	0.930659
	C8461	C	0.842186	0.125024	0.934518
	C8462	C	0.837849	0.035795	0.930722
	C8463	C	0.829391	0.035812	0.923232
	C8464	C	0.825063	0.125059	0.919394
	C8465	C	0.829418	0.214265	0.923146
	C8466	C	0.815984	0.125194	0.911245
	C8467	C	0.851239	0.125309	0.942787
	C8468	C	0.789492	0.124995	0.915188
	C8469	C	0.781177	0.124917	0.926510
	C8470	C	0.777174	0.213846	0.931817
	C8471	C	0.769423	0.213872	0.942240
	C8472	C	0.765439	0.124700	0.947531
	C8473	C	0.769448	0.035714	0.942269
	C8474	C	0.777216	0.035770	0.931864
	C8475	C	0.757143	0.124600	0.958895
	C8476	C	0.788691	0.375654	0.880375
	C8477	C	0.779677	0.375728	0.872030
	C8478	C	0.775406	0.464830	0.868053
	C8479	C	0.766965	0.464628	0.860493
	C8480	C	0.762601	0.375600	0.856835
	C8481	C	0.766870	0.286398	0.860782
	C8482	C	0.775315	0.286564	0.868350
	C8483	C	0.753532	0.375531	0.848656
	C8484	C	0.815575	0.375589	0.877325
	C8485	C	0.824590	0.375645	0.867385
	C8486	C	0.828917	0.286372	0.862865
	C8487	C	0.837358	0.286386	0.853890
	C8488	C	0.841670	0.375584	0.849331
	C8489	C	0.837327	0.464731	0.853811
	C8490	C	0.828881	0.464850	0.862762
	C8491	C	0.850838	0.375681	0.839769
	H8492	H	0.840624	0.217393	0.850393
	H8493	H	0.825661	0.217166	0.866364
	H8494	H	0.841155	0.283304	0.933597
	H8495	H	0.826138	0.283323	0.920125
	H8496	H	0.802282	0.124789	0.876199
	H8497	H	0.802610	0.374776	0.915460
	H8498	H	0.743788	0.374823	0.958956
	H8499	H	0.864206	0.125574	0.843167
	H8500	H	0.778541	0.217551	0.871498
	H8501	H	0.763579	0.217311	0.857919
	H8502	H	0.766448	0.282812	0.946312
	H8503	H	0.780138	0.283103	0.927758
	H8504	H	0.763712	0.533759	0.857416
	H8505	H	0.778681	0.533665	0.870984
	H8506	H	0.780231	-0.033199	0.927814
	H8507	H	0.766512	-0.033113	0.946437
	H8508	H	0.826124	-0.033332	0.920307
	H8509	H	0.841122	-0.033218	0.933718
	H8510	H	0.825606	0.533889	0.866181
	H8511	H	0.840569	0.533908	0.850302
	Al8512	Al	0.927270	-0.499431	0.020829
	Al8513	Al	0.927335	-0.249743	0.020861
	Al8514	Al	0.864813	-0.249513	-0.041652
	Al8515	Al	0.864826	-0.499313	-0.041641
	O8516	O	0.937430	-0.458824	0.033033
	O8517	O	0.927162	-0.374455	0.011442
	O8518	O	0.927500	-0.124667	0.030212
	O8519	O	0.979767	-0.458794	0.070832
	O8520	O	0.917780	-0.458703	0.035835
	O8521	O	0.878911	-0.459067	0.088292
	O8522	O	0.917818	-0.290793	0.035886
	O8523	O	0.917290	-0.208499	0.008455
	O8524	O	0.874934	-0.208430	-0.029361
	O8525	O	0.937381	-0.290487	0.033168
	O8526	O	0.937069	-0.208493	0.006188
	O8527	O	0.979470	-0.207816	-0.038750
	O8528	O	0.878866	-0.290742	0.088191
	O8529	O	0.917252	-0.040388	0.008517
	O8530	O	0.875020	-0.040145	-0.029489
	O8531	O	0.979505	-0.039891	-0.038696
	O8532	O	0.937018	-0.040447	0.006124
	O8533	O	0.979752	-0.290728	0.070874
	O8534	O	0.869221	-0.124670	0.094214
	O8535	O	0.989539	-0.373909	-0.042139
	C8536	C	0.962786	-0.285469	0.055782
	C8537	C	0.967124	-0.374663	0.059513
	C8538	C	0.962847	-0.463662	0.055561
	C8539	C	0.954399	-0.463455	0.048064
	C8540	C	0.950043	-0.374303	0.044359
	C8541	C	0.954343	-0.285277	0.048255
	C8542	C	0.940965	-0.374626	0.036212
	C8543	C	0.976177	-0.374656	0.067752
	C8544	C	0.914522	-0.374783	0.040197
	C8545	C	0.906151	-0.374831	0.051449
	C8546	C	0.902194	-0.285826	0.056828
	C8547	C	0.894461	-0.285683	0.067263
	C8548	C	0.890498	-0.374748	0.072600
	C8549	C	0.894465	-0.463709	0.067263
	C8550	C	0.902204	-0.463949	0.056821
	C8551	C	0.882170	-0.374898	0.083879
	C8552	C	0.913685	-0.124570	0.005391
	C8553	C	0.904624	-0.124586	-0.002788
	C8554	C	0.900322	-0.035489	-0.006647
	C8555	C	0.891909	-0.035169	-0.014229
	C8556	C	0.887584	-0.124288	-0.018058
	C8557	C	0.891916	-0.213522	-0.014297
	C8558	C	0.900340	-0.213633	-0.006732
	C8559	C	0.878525	-0.124348	-0.026274
	C8560	C	0.940590	-0.124473	0.002326
	C8561	C	0.949553	-0.124194	-0.007650
	C8562	C	0.953904	-0.213064	-0.012188
	C8563	C	0.962363	-0.212886	-0.021116
	C8564	C	0.966693	-0.123736	-0.025649
	C8565	C	0.962299	-0.035014	-0.021226
	C8566	C	0.953842	-0.035039	-0.012281
	C8567	C	0.975842	-0.123959	-0.035162
	H8568	H	0.965648	-0.281763	-0.024604
	H8569	H	0.950671	-0.282167	-0.008689
	H8570	H	0.966022	-0.216664	0.058920
	H8571	H	0.951017	-0.216618	0.045397
	H8572	H	0.927146	-0.373902	0.001217
	H8573	H	0.927723	-0.124407	0.040498
	H8574	H	0.868801	-0.124766	0.084023
	H8575	H	0.989031	-0.373837	-0.031809
	H8576	H	0.903620	-0.282691	-0.003800
	H8577	H	0.888638	-0.282145	-0.017295
	H8578	H	0.891504	-0.216440	0.071329
	H8579	H	0.905202	-0.216803	0.052786
	H8580	H	0.888641	0.033977	-0.017174
	H8581	H	0.903597	0.033539	-0.003667
	H8582	H	0.905204	-0.532867	0.052789
	H8583	H	0.891484	-0.532549	0.071356
	H8584	H	0.951152	-0.532328	0.045051
	H8585	H	0.966127	-0.532608	0.058466
	H8586	H	0.950564	0.033784	-0.008816
	H8587	H	0.965527	0.034353	-0.024769
	Al8588	Al	0.927307	0.000482	0.020789
	Al8589	Al	0.927278	0.250529	0.020839
	Al8590	Al	0.864820	0.250525	-0.041688
	Al8591	Al	0.864851	0.000378	-0.041693
	O8592	O	0.937410	0.041459	0.033118
	O8593	O	0.927112	0.125553	0.011467
	O8594	O	0.927505	0.375524	0.030180
	O8595	O	0.979716	0.041704	0.070955
	O8596	O	0.917809	0.041807	0.035872
	O8597	O	0.878852	0.041680	0.088204
	O8598	O	0.917805	0.210109	0.035861
	O8599	O	0.917246	0.291363	0.008509
	O8600	O	0.874949	0.291647	-0.029479
	O8601	O	0.937370	0.209507	0.033168
	O8602	O	0.937007	0.291498	0.006170
	O8603	O	0.979528	0.291914	-0.038723
	O8604	O	0.878897	0.209781	0.088232
	O8605	O	0.917249	0.459648	0.008391
	O8606	O	0.874921	0.459719	-0.029326
	O8607	O	0.979430	0.459776	-0.038755
	O8608	O	0.936995	0.459723	0.006069
	O8609	O	0.979749	0.209978	0.070932
	O8610	O	0.869198	0.375264	0.094213
	O8611	O	0.989565	0.125768	-0.042175
	C8612	C	0.962795	0.215095	0.055751
	C8613	C	0.967158	0.126052	0.059492
	C8614	C	0.962847	0.036896	0.055637
	C8615	C	0.954424	0.036692	0.048096
	C8616	C	0.950075	0.125706	0.044351
	C8617	C	0.954363	0.215090	0.048202
	C8618	C	0.940975	0.125523	0.036193
	C8619	C	0.976189	0.125902	0.067776
	C8620	C	0.914523	0.126046	0.040188
	C8621	C	0.906164	0.125943	0.051450
	C8622	C	0.902245	0.215055	0.056864
	C8623	C	0.894502	0.214942	0.067296
	C8624	C	0.890505	0.125720	0.072586
	C8625	C	0.894436	0.036648	0.067173
	C8626	C	0.902189	0.036838	0.056758
	C8627	C	0.882142	0.125702	0.083856
	C8628	C	0.913692	0.375295	0.005302
	C8629	C	0.904645	0.375208	-0.002954
	C8630	C	0.900320	0.464130	-0.006748
	C8631	C	0.891877	0.464088	-0.014271
	C8632	C	0.887564	0.375071	-0.018127
	C8633	C	0.891896	0.286059	-0.014355
	C8634	C	0.900340	0.286154	-0.006836
	C8635	C	0.878506	0.375602	-0.026278
	C8636	C	0.940571	0.375531	0.002321
	C8637	C	0.949552	0.375209	-0.007618
	C8638	C	0.953931	0.286296	-0.012122
	C8639	C	0.962369	0.286499	-0.021048
	C8640	C	0.966678	0.375567	-0.025625
	C8641	C	0.962301	0.464410	-0.021154
	C8642	C	0.953859	0.464203	-0.012244
	C8643	C	0.975860	0.375618	-0.035146
	H8644	H	0.965689	0.217826	-0.024480
	H8645	H	0.950729	0.217210	-0.008545
	H8646	H	0.966053	0.283964	0.058788
	H8647	H	0.951044	0.283907	0.045318
	H8648	H	0.927067	0.126069	0.001235
	H8649	H	0.927803	0.375184	0.040369
	H8650	H	0.868893	0.375632	0.083927
	H8651	H	0.989086	0.125686	-0.031836
	H8652	H	0.903617	0.217264	-0.003913
	H8653	H	0.888642	0.217082	-0.017345
	H8654	H	0.891510	0.283952	0.071398
	H8655	H	0.905266	0.283950	0.052884
	H8656	H	0.888593	0.532982	-0.017209
	H8657	H	0.903612	0.533032	-0.003726
	H8658	H	0.905146	-0.031827	0.052642
	H8659	H	0.891403	-0.032443	0.071125
	H8660	H	0.951178	-0.032252	0.045085
	H8661	H	0.966165	-0.032243	0.058534
	H8662	H	0.950575	0.533152	-0.008700
	H8663	H	0.965570	0.533631	-0.024628
	Al8664	Al	0.932015	-0.499985	0.166036
	Al8665	Al	0.932082	-0.249730	0.166073
	Al8666	Al	0.869584	-0.249517	0.103579
	Al8667	Al	0.869519	-0.499757	0.103512
	O8668	O	0.942243	-0.459387	0.178107
	O8669	O	0.931668	-0.374702	0.156744
	O8670	O	0.932311	-0.124686	0.175391
	O8671	O	0.984397	-0.459252	0.216326
	O8672	O	0.922710	-0.458828	0.181359
	O8673	O	0.884285	-0.458962	0.234626
	O8674	O	0.922750	-0.290584	0.181450
	O8675	O	0.921861	-0.208512	0.154051
	O8676	O	0.879785	-0.208683	0.115628
	O8677	O	0.942231	-0.291243	0.178105
	O8678	O	0.941425	-0.208777	0.150797
	O8679	O	0.980266	-0.208629	0.098205
	O8680	O	0.884242	-0.290929	0.234663
	O8681	O	0.921829	-0.040197	0.154044
	O8682	O	0.879759	-0.040613	0.115595
	O8683	O	0.980302	-0.040645	0.098284
	O8684	O	0.941430	-0.040792	0.150798
	O8685	O	0.984340	-0.290962	0.216472
	O8686	O	0.874659	-0.125041	0.240758
	O8687	O	0.989979	-0.374481	0.092554
	C8688	C	0.967518	-0.285906	0.201028
	C8689	C	0.971833	-0.375053	0.204899
	C8690	C	0.967559	-0.464340	0.200989
	C8691	C	0.959157	-0.464411	0.193354
	C8692	C	0.954835	-0.375303	0.189510
	C8693	C	0.959103	-0.286041	0.193419
	C8694	C	0.945791	-0.375375	0.181239
	C8695	C	0.980826	-0.375006	0.213219
	C8696	C	0.919488	-0.374577	0.185822
	C8697	C	0.911276	-0.374421	0.197338
	C8698	C	0.907340	-0.285441	0.202783
	C8699	C	0.899688	-0.285609	0.213371
	C8700	C	0.895766	-0.374552	0.218801
	C8701	C	0.899702	-0.463542	0.213350
	C8702	C	0.907351	-0.463357	0.202754
	C8703	C	0.887511	-0.374786	0.230252
	C8704	C	0.918323	-0.124437	0.150871
	C8705	C	0.909299	-0.124417	0.142578
	C8706	C	0.904999	-0.035119	0.138699
	C8707	C	0.896631	-0.035158	0.131015
	C8708	C	0.892348	-0.124454	0.127107
	C8709	C	0.896636	-0.213713	0.131023
	C8710	C	0.905019	-0.213644	0.138702
	C8711	C	0.883334	-0.124442	0.118755
	C8712	C	0.944692	-0.124656	0.146417
	C8713	C	0.952990	-0.124768	0.135055
	C8714	C	0.956919	-0.213786	0.129651
	C8715	C	0.964650	-0.213677	0.119180
	C8716	C	0.968635	-0.124629	0.113867
	C8717	C	0.964709	-0.035685	0.119299
	C8718	C	0.956981	-0.035592	0.129774
	C8719	C	0.977003	-0.124636	0.102571
	H8720	H	0.967634	-0.282828	0.115116
	H8721	H	0.953930	-0.282866	0.133702
	H8722	H	0.970766	-0.216771	0.204083
	H8723	H	0.955807	-0.216807	0.190444
	H8724	H	0.931270	-0.374788	0.146577
	H8725	H	0.932511	-0.124357	0.185594
	H8726	H	0.874491	-0.124938	0.230481
	H8727	H	0.990231	-0.374344	0.102772
	H8728	H	0.908296	-0.282613	0.141713
	H8729	H	0.893405	-0.282626	0.127987
	H8730	H	0.896742	-0.216266	0.217529
	H8731	H	0.910279	-0.216396	0.198623
	H8732	H	0.893380	0.033872	0.127938
	H8733	H	0.908283	0.034152	0.141691
	H8734	H	0.910295	-0.532298	0.198589
	H8735	H	0.896721	-0.532636	0.217478
	H8736	H	0.955911	-0.533561	0.190319
	H8737	H	0.970824	-0.533239	0.203984
	H8738	H	0.954032	0.033447	0.133873
	H8739	H	0.967726	0.033450	0.115352
	Al8740	Al	0.932074	0.000287	0.166050
	Al8741	Al	0.932042	0.250106	0.165988
	Al8742	Al	0.869527	0.250249	0.103507
	Al8743	Al	0.869536	0.000078	0.103509
	O8744	O	0.942285	0.041497	0.178071
	O8745	O	0.931773	0.125088	0.156666
	O8746	O	0.932344	0.374986	0.175335
	O8747	O	0.984334	0.041276	0.216428
	O8748	O	0.922741	0.041085	0.181347
	O8749	O	0.884309	0.040845	0.234653
	O8750	O	0.922744	0.209060	0.181393
	O8751	O	0.921797	0.290913	0.153989
	O8752	O	0.879699	0.290755	0.115621
	O8753	O	0.942271	0.209767	0.177992
	O8754	O	0.941311	0.291748	0.150598
	O8755	O	0.980275	0.291563	0.098326
	O8756	O	0.884313	0.208787	0.234648
	O8757	O	0.921837	0.459147	0.153921
	O8758	O	0.879718	0.458968	0.115577
	O8759	O	0.980311	0.459415	0.098377
	O8760	O	0.941367	0.459608	0.150748
	O8761	O	0.984327	0.209520	0.216510
	O8762	O	0.874699	0.375079	0.240770
	O8763	O	0.990015	0.125253	0.092623
	C8764	C	0.967501	0.214966	0.201076
	C8765	C	0.971810	0.125665	0.204915
	C8766	C	0.967564	0.036584	0.200924
	C8767	C	0.959167	0.036652	0.193274
	C8768	C	0.954856	0.125816	0.189449
	C8769	C	0.959098	0.215021	0.193442
	C8770	C	0.945839	0.125685	0.181156
	C8771	C	0.980797	0.125513	0.213276
	C8772	C	0.919487	0.125023	0.185792
	C8773	C	0.911277	0.124936	0.197307
	C8774	C	0.907360	0.213922	0.202774
	C8775	C	0.899719	0.213924	0.213410
	C8776	C	0.895803	0.124749	0.218789
	C8777	C	0.899690	0.035862	0.213271
	C8778	C	0.907332	0.036006	0.202652
	C8779	C	0.887575	0.124744	0.230278
	C8780	C	0.918275	0.375063	0.150792
	C8781	C	0.909266	0.375162	0.142435
	C8782	C	0.904990	0.464455	0.138524
	C8783	C	0.896584	0.464338	0.130891
	C8784	C	0.892295	0.374932	0.127035
	C8785	C	0.896561	0.285785	0.130982
	C8786	C	0.904956	0.285823	0.138613
	C8787	C	0.883250	0.374985	0.118766
	C8788	C	0.944637	0.375664	0.146315
	C8789	C	0.952964	0.375721	0.135054
	C8790	C	0.956876	0.286830	0.129592
	C8791	C	0.964619	0.286771	0.119160
	C8792	C	0.968639	0.375704	0.113918
	C8793	C	0.964724	0.464649	0.119345
	C8794	C	0.956985	0.464660	0.129810
	C8795	C	0.976980	0.375486	0.102667
	H8796	H	0.967556	0.217867	0.115021
	H8797	H	0.953857	0.217821	0.133575
	H8798	H	0.970715	0.283946	0.204166
	H8799	H	0.955809	0.284090	0.190471
	H8800	H	0.931470	0.125406	0.146423
	H8801	H	0.932796	0.375514	0.185568
	H8802	H	0.874279	0.375041	0.230490
	H8803	H	0.990324	0.125330	0.102880
	H8804	H	0.908184	0.216925	0.141706
	H8805	H	0.893271	0.216950	0.128089
	H8806	H	0.896768	0.282741	0.217578
	H8807	H	0.910334	0.282738	0.198716
	H8808	H	0.893328	0.533367	0.127866
	H8809	H	0.908240	0.533572	0.141546
	H8810	H	0.910269	-0.032953	0.198503
	H8811	H	0.896735	-0.033259	0.217363
	H8812	H	0.955950	-0.032367	0.190163
	H8813	H	0.970831	-0.032303	0.203919
	H8814	H	0.954030	0.533915	0.133959
	H8815	H	0.967727	0.533631	0.115324
	Al8816	Al	0.937525	-0.500069	0.312552
	Al8817	Al	0.937521	-0.250042	0.312556
	Al8818	Al	0.874966	-0.249742	0.250081
	Al8819	Al	0.874984	-0.500064	0.250044
	O8820	O	0.947802	-0.459262	0.324501
	O8821	O	0.937194	-0.375061	0.303231
	O8822	O	0.937837	-0.124833	0.321873
	O8823	O	0.989789	-0.458887	0.363041
	O8824	O	0.928266	-0.459005	0.327934
	O8825	O	0.889795	-0.458996	0.381200
	O8826	O	0.928259	-0.291074	0.327953
	O8827	O	0.927280	-0.209260	0.300565
	O8828	O	0.885245	-0.209436	0.261998
	O8829	O	0.947755	-0.290945	0.324531
	O8830	O	0.946828	-0.208977	0.297216
	O8831	O	0.985206	-0.208615	0.243884
	O8832	O	0.889786	-0.291093	0.381147
	O8833	O	0.927294	-0.040889	0.300538
	O8834	O	0.885186	-0.041098	0.262049
	O8835	O	0.985190	-0.040555	0.243843
	O8836	O	0.946789	-0.040792	0.297147
	O8837	O	0.989842	-0.290918	0.363087
	O8838	O	0.880158	-0.125127	0.387198
	O8839	O	0.994857	-0.374904	0.237779
	C8840	C	0.973010	-0.285785	0.347581
	C8841	C	0.977296	-0.374698	0.351494
	C8842	C	0.973006	-0.463787	0.347635
	C8843	C	0.964632	-0.463744	0.339943
	C8844	C	0.960336	-0.374878	0.336030
	C8845	C	0.964625	-0.285914	0.339893
	C8846	C	0.951315	-0.374846	0.327701
	C8847	C	0.986269	-0.374617	0.359878
	C8848	C	0.925015	-0.375013	0.332362
	C8849	C	0.916782	-0.375174	0.343845
	C8850	C	0.912849	-0.286254	0.349248
	C8851	C	0.905201	-0.286366	0.359851
	C8852	C	0.901288	-0.375214	0.365310
	C8853	C	0.905197	-0.464077	0.359855
	C8854	C	0.912846	-0.464053	0.349244
	C8855	C	0.893055	-0.374986	0.376797
	C8856	C	0.923737	-0.125136	0.297411
	C8857	C	0.914757	-0.125083	0.288996
	C8858	C	0.910433	-0.035822	0.285188
	C8859	C	0.902046	-0.035696	0.277485
	C8860	C	0.897784	-0.124990	0.273513
	C8861	C	0.902105	-0.214208	0.277310
	C8862	C	0.910493	-0.214318	0.284998
	C8863	C	0.888765	-0.125245	0.265187
	C8864	C	0.950048	-0.124766	0.292775
	C8865	C	0.958255	-0.124700	0.281240
	C8866	C	0.962200	-0.213702	0.275863
	C8867	C	0.969833	-0.213489	0.265230
	C8868	C	0.973729	-0.124591	0.259780
	C8869	C	0.969801	-0.035518	0.265188
	C8870	C	0.962157	-0.035554	0.275808
	C8871	C	0.981940	-0.124538	0.248250
	H8872	H	0.972780	-0.282266	0.261116
	H8873	H	0.959278	-0.282617	0.280020
	H8874	H	0.976249	-0.217138	0.350566
	H8875	H	0.961355	-0.217254	0.336929
	H8876	H	0.936704	-0.374688	0.293007
	H8877	H	0.938100	-0.124477	0.332157
	H8878	H	0.879864	-0.124654	0.376943
	H8879	H	0.995081	-0.374906	0.248070
	H8880	H	0.913744	-0.283379	0.288025
	H8881	H	0.898875	-0.283542	0.274237
	H8882	H	0.902246	-0.217499	0.364003
	H8883	H	0.915789	-0.217359	0.345116
	H8884	H	0.898776	0.033285	0.274503
	H8885	H	0.913656	0.033169	0.288324
	H8886	H	0.915810	-0.532999	0.345116
	H8887	H	0.902237	-0.532772	0.363987
	H8888	H	0.961368	-0.532867	0.337008
	H8889	H	0.976270	-0.532653	0.350708
	H8890	H	0.959181	0.033199	0.279933
	H8891	H	0.972748	0.033472	0.261027
	Al8892	Al	0.937491	0.000168	0.312530
	Al8893	Al	0.937535	0.249846	0.312584
	Al8894	Al	0.875067	0.249888	0.250040
	Al8895	Al	0.874987	0.000053	0.250072
	O8896	O	0.947725	0.040708	0.324506
	O8897	O	0.937164	0.125174	0.303219
	O8898	O	0.937837	0.374933	0.321895
	O8899	O	0.989797	0.040782	0.363037
	O8900	O	0.928188	0.040709	0.327907
	O8901	O	0.889873	0.040509	0.381231
	O8902	O	0.928257	0.208944	0.327930
	O8903	O	0.927290	0.291152	0.300572
	O8904	O	0.885278	0.291071	0.262046
	O8905	O	0.947755	0.208981	0.324513
	O8906	O	0.946831	0.290615	0.297207
	O8907	O	0.985279	0.291137	0.243864
	O8908	O	0.889743	0.208629	0.381185
	O8909	O	0.927303	0.459279	0.300533
	O8910	O	0.885228	0.459153	0.262042
	O8911	O	0.985232	0.459333	0.243812
	O8912	O	0.946774	0.458910	0.297131
	O8913	O	0.989761	0.209166	0.363065
	O8914	O	0.880188	0.374904	0.387244
	O8915	O	0.994911	0.125224	0.237813
	C8916	C	0.972945	0.213641	0.347656
	C8917	C	0.977246	0.124506	0.351507
	C8918	C	0.972971	0.035310	0.347602
	C8919	C	0.964583	0.035283	0.339909
	C8920	C	0.960308	0.124513	0.335993
	C8921	C	0.964566	0.213570	0.339968
	C8922	C	0.951297	0.124712	0.327625
	C8923	C	0.986269	0.124793	0.359855
	C8924	C	0.924982	0.125088	0.332301
	C8925	C	0.916749	0.124993	0.343833
	C8926	C	0.912839	0.213869	0.349266
	C8927	C	0.905193	0.214043	0.359870
	C8928	C	0.901275	0.125105	0.365267
	C8929	C	0.905189	0.036032	0.359862
	C8930	C	0.912819	0.036086	0.349234
	C8931	C	0.893061	0.124843	0.376823
	C8932	C	0.923750	0.375174	0.297386
	C8933	C	0.914743	0.375466	0.289051
	C8934	C	0.910460	0.464447	0.285103
	C8935	C	0.902102	0.464428	0.277397
	C8936	C	0.897797	0.375457	0.273534
	C8937	C	0.902071	0.286407	0.277482
	C8938	C	0.910436	0.286530	0.285197
	C8939	C	0.888814	0.375178	0.265177
	C8940	C	0.950066	0.374906	0.292759
	C8941	C	0.958256	0.374840	0.281220
	C8942	C	0.962210	0.285939	0.275813
	C8943	C	0.969855	0.285835	0.265184
	C8944	C	0.973751	0.374981	0.259735
	C8945	C	0.969792	0.463808	0.265119
	C8946	C	0.962153	0.463987	0.275734
	C8947	C	0.981990	0.375050	0.248246
	H8948	H	0.972854	0.216942	0.261071
	H8949	H	0.959280	0.217033	0.279977
	H8950	H	0.976188	0.282595	0.350702
	H8951	H	0.961341	0.282636	0.336941
	H8952	H	0.936836	0.125347	0.293020
	H8953	H	0.938125	0.375006	0.332073
	H8954	H	0.879809	0.375162	0.376978
	H8955	H	0.995414	0.125309	0.248044
	H8956	H	0.913685	0.217763	0.288282
	H8957	H	0.898798	0.217494	0.274497
	H8958	H	0.902250	0.282787	0.363976
	H8959	H	0.915791	0.282730	0.345154
	H8960	H	0.898866	0.533581	0.274307
	H8961	H	0.913728	0.533490	0.288096
	H8962	H	0.915762	-0.033061	0.345089
	H8963	H	0.902230	-0.032944	0.364016
	H8964	H	0.961354	-0.033714	0.336815
	H8965	H	0.976246	-0.033293	0.350589
	H8966	H	0.959166	0.533004	0.279846
	H8967	H	0.972710	0.532683	0.260976
	Al8968	Al	0.943005	-0.500002	0.459075
	Al8969	Al	0.942960	-0.250148	0.459064
	Al8970	Al	0.880495	-0.250162	0.396509
	Al8971	Al	0.880504	-0.500064	0.396528
	O8972	O	0.953182	-0.459216	0.471087
	O8973	O	0.942660	-0.374984	0.449781
	O8974	O	0.943323	-0.125335	0.468351
	O8975	O	0.995263	-0.459666	0.509584
	O8976	O	0.933643	-0.459259	0.474445
	O8977	O	0.894683	-0.459653	0.526721
	O8978	O	0.933586	-0.290957	0.474314
	O8979	O	0.932793	-0.208791	0.447002
	O8980	O	0.890723	-0.209005	0.408519
	O8981	O	0.953218	-0.291171	0.470977
	O8982	O	0.952322	-0.209182	0.443685
	O8983	O	0.990749	-0.208906	0.390421
	O8984	O	0.894675	-0.291795	0.526666
	O8985	O	0.932749	-0.040714	0.447158
	O8986	O	0.890726	-0.041157	0.408581
	O8987	O	0.990725	-0.040913	0.390373
	O8988	O	0.952287	-0.041017	0.443715
	O8989	O	0.995238	-0.291419	0.509639
	O8990	O	0.884963	-0.125424	0.532312
	O8991	O	1.000371	-0.374810	0.384350
	C8992	C	0.978404	-0.286137	0.494251
	C8993	C	0.982711	-0.375410	0.498077
	C8994	C	0.978453	-0.464682	0.494100
	C8995	C	0.970054	-0.464503	0.486439
	C8996	C	0.965763	-0.375223	0.482573
	C8997	C	0.970022	-0.285990	0.486576
	C8998	C	0.956751	-0.375116	0.474224
	C8999	C	0.991726	-0.375629	0.506414
	C9000	C	0.930318	-0.375299	0.478688
	C9001	C	0.922017	-0.375211	0.489997
	C9002	C	0.918013	-0.286493	0.495268
	C9003	C	0.910268	-0.286482	0.505691
	C9004	C	0.906324	-0.375478	0.511057
	C9005	C	0.910349	-0.464367	0.505820
	C9006	C	0.918099	-0.464275	0.495403
	C9007	C	0.897980	-0.375816	0.522360
	C9008	C	0.929214	-0.124883	0.443956
	C9009	C	0.920238	-0.125122	0.435549
	C9010	C	0.915928	-0.036362	0.431717
	C9011	C	0.907549	-0.036316	0.424015
	C9012	C	0.903285	-0.125156	0.420054
	C9013	C	0.907598	-0.213866	0.423886
	C9014	C	0.915978	-0.213873	0.431585
	C9015	C	0.894302	-0.125154	0.411687
	C9016	C	0.955554	-0.125029	0.439320
	C9017	C	0.963749	-0.125099	0.427789
	C9018	C	0.967699	-0.214206	0.422393
	C9019	C	0.975330	-0.213925	0.411758
	C9020	C	0.979222	-0.124827	0.406291
	C9021	C	0.975294	-0.035934	0.411710
	C9022	C	0.967667	-0.036042	0.422355
	C9023	C	0.987475	-0.125011	0.394809
	H9024	H	0.978319	-0.283031	0.407672
	H9025	H	0.964801	-0.283349	0.426567
	H9026	H	0.981648	-0.217040	0.497294
	H9027	H	0.966748	-0.216864	0.483641
	H9028	H	0.942348	-0.374286	0.439478
	H9029	H	0.943720	-0.124743	0.478638
	H9030	H	0.884581	-0.125557	0.522070
	H9031	H	1.000793	-0.374811	0.394603
	H9032	H	0.919241	-0.282933	0.434530
	H9033	H	0.904364	-0.282808	0.420800
	H9034	H	0.907259	-0.217647	0.509751
	H9035	H	0.920966	-0.217638	0.491128
	H9036	H	0.904293	0.032526	0.421044
	H9037	H	0.919120	0.032626	0.434810
	H9038	H	0.921098	-0.533000	0.491394
	H9039	H	0.907428	-0.533310	0.509936
	H9040	H	0.966819	-0.533698	0.483397
	H9041	H	0.981739	-0.533936	0.497055
	H9042	H	0.964730	0.033015	0.426519
	H9043	H	0.978237	0.033215	0.407592
	Al9044	Al	0.942983	-0.000024	0.459095
	Al9045	Al	0.942977	0.249881	0.459047
	Al9046	Al	0.880463	0.249704	0.396528
	Al9047	Al	0.880510	-0.000255	0.396525
	O9048	O	0.953260	0.040535	0.471000
	O9049	O	0.942618	0.124833	0.449740
	O9050	O	0.943278	0.374666	0.468412
	O9051	O	0.995246	0.040637	0.509567
	O9052	O	0.933722	0.041013	0.474508
	O9053	O	0.894668	0.040425	0.526632
	O9054	O	0.933594	0.209172	0.474292
	O9055	O	0.932774	0.290594	0.447000
	O9056	O	0.890716	0.290485	0.408532
	O9057	O	0.953164	0.208603	0.471051
	O9058	O	0.952294	0.290809	0.443725
	O9059	O	0.990739	0.290640	0.390445
	O9060	O	0.894646	0.208592	0.526596
	O9061	O	0.932738	0.459060	0.447101
	O9062	O	0.890663	0.458817	0.408637
	O9063	O	0.990700	0.458754	0.390405
	O9064	O	0.952307	0.458669	0.443748
	O9065	O	0.995259	0.208785	0.509607
	O9066	O	0.884944	0.374523	0.532334
	O9067	O	1.000378	0.124913	0.384304
	C9068	C	0.978359	0.214324	0.494306
	C9069	C	0.982687	0.125079	0.498143
	C9070	C	0.978466	0.035842	0.494060
	C9071	C	0.970091	0.035797	0.486378
	C9072	C	0.965747	0.124978	0.482591
	C9073	C	0.969983	0.214191	0.486613
	C9074	C	0.956765	0.124696	0.474246
	C9075	C	0.991694	0.124767	0.506425
	C9076	C	0.930354	0.125048	0.478702
	C9077	C	0.922020	0.124804	0.490025
	C9078	C	0.917979	0.213568	0.495220
	C9079	C	0.910240	0.213388	0.505649
	C9080	C	0.906320	0.124453	0.511048
	C9081	C	0.910356	0.035626	0.505846
	C9082	C	0.918102	0.035820	0.495425
	C9083	C	0.897985	0.124541	0.522334
	C9084	C	0.929215	0.374976	0.443891
	C9085	C	0.920241	0.374960	0.435496
	C9086	C	0.915899	0.463947	0.431715
	C9087	C	0.907513	0.463699	0.424037
	C9088	C	0.903270	0.374621	0.420061
	C9089	C	0.907600	0.285624	0.423873
	C9090	C	0.915993	0.285883	0.431545
	C9091	C	0.894243	0.374604	0.411732
	C9092	C	0.955543	0.374792	0.439303
	C9093	C	0.963775	0.374837	0.427812
	C9094	C	0.967731	0.285995	0.422444
	C9095	C	0.975342	0.285840	0.411815
	C9096	C	0.979238	0.374780	0.406297
	C9097	C	0.975272	0.463626	0.411652
	C9098	C	0.967648	0.463855	0.422278
	C9099	C	0.987458	0.374619	0.394827
	H9100	H	0.978295	0.216943	0.407713
	H9101	H	0.964783	0.217049	0.426619
	H9102	H	0.981564	0.283193	0.497450
	H9103	H	0.966695	0.283084	0.483640
	H9104	H	0.942154	0.124919	0.439591
	H9105	H	0.943388	0.375121	0.478669
	H9106	H	0.884687	0.374762	0.522068
	H9107	H	1.000688	0.124841	0.394493
	H9108	H	0.919265	0.217091	0.434513
	H9109	H	0.904386	0.216687	0.420781
	H9110	H	0.907188	0.282359	0.509565
	H9111	H	0.920913	0.282271	0.491119
	H9112	H	0.904248	0.532451	0.421073
	H9113	H	0.919099	0.532644	0.434861
	H9114	H	0.921162	-0.033022	0.491463
	H9115	H	0.907421	-0.033374	0.509995
	H9116	H	0.966914	-0.033360	0.483194
	H9117	H	0.981764	-0.033133	0.497015
	H9118	H	0.964656	0.532745	0.426359
	H9119	H	0.978207	0.532522	0.407438
	Al9120	Al	0.947661	-0.500647	0.604197
	Al9121	Al	0.947598	-0.250501	0.604293
	Al9122	Al	0.885189	-0.250643	0.541742
	Al9123	Al	0.885208	-0.500351	0.541785
	O9124	O	0.957668	-0.459521	0.616654
	O9125	O	0.947474	-0.375586	0.594922
	O9126	O	0.947831	-0.125273	0.613698
	O9127	O	0.999996	-0.459211	0.654574
	O9128	O	0.937878	-0.459681	0.618872
	O9129	O	0.895462	-0.459644	0.663866
	O9130	O	0.937925	-0.291697	0.619032
	O9131	O	0.937493	-0.209211	0.592183
	O9132	O	0.895276	-0.209195	0.553985
	O9133	O	0.957724	-0.291154	0.616585
	O9134	O	0.957129	-0.209481	0.589256
	O9135	O	0.996114	-0.209350	0.537046
	O9136	O	0.895542	-0.291695	0.663925
	O9137	O	0.937533	-0.040974	0.592041
	O9138	O	0.895253	-0.040916	0.554000
	O9139	O	0.996072	-0.041171	0.537007
	O9140	O	0.957106	-0.041523	0.589243
	O9141	O	1.000052	-0.291021	0.654587
	O9142	O	0.885379	-0.126029	0.667105
	O9143	O	1.005811	-0.375382	0.530982
	C9144	C	0.983109	-0.286310	0.639234
	C9145	C	0.987403	-0.375227	0.643187
	C9146	C	0.983045	-0.464544	0.639485
	C9147	C	0.974599	-0.464413	0.631951
	C9148	C	0.970318	-0.375395	0.627980
	C9149	C	0.974672	-0.286097	0.631685
	C9150	C	0.961248	-0.375328	0.619737
	C9151	C	0.996464	-0.375050	0.651442
	C9152	C	0.934345	-0.375822	0.622727
	C9153	C	0.925338	-0.375905	0.632594
	C9154	C	0.921059	-0.286913	0.637239
	C9155	C	0.912627	-0.286876	0.646216
	C9156	C	0.908252	-0.375724	0.650706
	C9157	C	0.912586	-0.464684	0.646183
	C9158	C	0.921019	-0.464784	0.637215
	C9159	C	0.899110	-0.375749	0.660223
	C9160	C	0.933937	-0.124960	0.588994
	C9161	C	0.924893	-0.125202	0.580751
	C9162	C	0.920657	-0.036137	0.576749
	C9163	C	0.912227	-0.035977	0.569166
	C9164	C	0.907863	-0.125045	0.565430
	C9165	C	0.912118	-0.214164	0.569365
	C9166	C	0.920545	-0.214225	0.576951
	C9167	C	0.898823	-0.125068	0.557146
	C9168	C	0.960432	-0.125356	0.584970
	C9169	C	0.968790	-0.125168	0.573709
	C9170	C	0.972800	-0.214135	0.568480
	C9171	C	0.980559	-0.214116	0.558041
	C9172	C	0.984466	-0.125180	0.552667
	C9173	C	0.980446	-0.036255	0.557887
	C9174	C	0.972688	-0.036039	0.568345
	C9175	C	0.992803	-0.125361	0.541336
	H9176	H	0.983541	-0.283334	0.554075
	H9177	H	0.969866	-0.283230	0.572613
	H9178	H	0.986385	-0.217196	0.642070
	H9179	H	0.971414	-0.217258	0.628616
	H9180	H	0.947280	-0.375532	0.584667
	H9181	H	0.947972	-0.125842	0.623920
	H9182	H	0.885911	-0.126155	0.656861
	H9183	H	1.006129	-0.375375	0.541211
	H9184	H	0.923769	-0.283323	0.579963
	H9185	H	0.908814	-0.282688	0.566409
	H9186	H	0.909373	-0.218024	0.649705
	H9187	H	0.924335	-0.218078	0.633743
	H9188	H	0.909023	0.032784	0.566074
	H9189	H	0.923959	0.032812	0.579658
	H9190	H	0.924257	-0.533834	0.633718
	H9191	H	0.909302	-0.533560	0.649676
	H9192	H	0.971279	-0.533247	0.629136
	H9193	H	0.986282	-0.533400	0.642627
	H9194	H	0.969691	0.033229	0.572325
	H9195	H	0.983391	0.032800	0.553757
	Al9196	Al	0.947661	-0.000280	0.604293
	Al9197	Al	0.947699	0.249334	0.604292
	Al9198	Al	0.885172	0.249147	0.541706
	Al9199	Al	0.885190	-0.000535	0.541650
	O9200	O	0.957707	0.040053	0.616667
	O9201	O	0.947471	0.124602	0.594893
	O9202	O	0.947860	0.374390	0.613609
	O9203	O	1.000042	0.040042	0.654537
	O9204	O	0.937949	0.040734	0.618960
	O9205	O	0.895491	0.040278	0.663751
	O9206	O	0.937943	0.209150	0.618943
	O9207	O	0.937579	0.290286	0.591995
	O9208	O	0.895224	0.290195	0.554156
	O9209	O	0.957747	0.208431	0.616647
	O9210	O	0.957216	0.290397	0.589266
	O9211	O	0.996116	0.290803	0.536873
	O9212	O	0.895430	0.208466	0.663799
	O9213	O	0.937590	0.458285	0.591955
	O9214	O	0.895274	0.458387	0.554077
	O9215	O	0.996148	0.459007	0.536928
	O9216	O	0.957165	0.458351	0.589175
	O9217	O	1.000057	0.208426	0.654492
	O9218	O	0.885372	0.374310	0.667214
	O9219	O	1.005806	0.124891	0.530985
	C9220	C	0.983100	0.213492	0.639342
	C9221	C	0.987404	0.124190	0.643231
	C9222	C	0.983061	0.035026	0.639486
	C9223	C	0.974613	0.034902	0.631963
	C9224	C	0.970321	0.124005	0.628079
	C9225	C	0.974657	0.213320	0.631836
	C9226	C	0.961271	0.124208	0.619820
	C9227	C	0.996484	0.124033	0.651427
	C9228	C	0.934431	0.124953	0.622808
	C9229	C	0.925412	0.125195	0.632704
	C9230	C	0.921124	0.214019	0.637329
	C9231	C	0.912670	0.213937	0.646244
	C9232	C	0.908310	0.125020	0.650733
	C9233	C	0.912606	0.036201	0.646116
	C9234	C	0.921049	0.036239	0.637181
	C9235	C	0.899110	0.124583	0.660181
	C9236	C	0.934006	0.374444	0.588885
	C9237	C	0.924943	0.374376	0.580694
	C9238	C	0.920665	0.463516	0.576767
	C9239	C	0.912221	0.463598	0.569228
	C9240	C	0.907855	0.374480	0.565507
	C9241	C	0.912133	0.285496	0.569457
	C9242	C	0.920573	0.285427	0.576982
	C9243	C	0.898803	0.374152	0.557258
	C9244	C	0.960479	0.374563	0.584893
	C9245	C	0.968824	0.374875	0.573601
	C9246	C	0.972831	0.285896	0.568312
	C9247	C	0.980563	0.285882	0.557911
	C9248	C	0.984521	0.374825	0.552540
	C9249	C	0.980502	0.463851	0.557812
	C9250	C	0.972766	0.464043	0.568223
	C9251	C	0.992846	0.374897	0.541245
	H9252	H	0.983598	0.216614	0.553917
	H9253	H	0.969832	0.217238	0.572419
	H9254	H	0.986419	0.282378	0.642216
	H9255	H	0.971407	0.282321	0.628786
	H9256	H	0.947142	0.124325	0.584626
	H9257	H	0.947982	0.374918	0.623918
	H9258	H	0.885953	0.374155	0.656889
	H9259	H	1.006083	0.125574	0.541262
	H9260	H	0.923804	0.216531	0.580020
	H9261	H	0.908803	0.216877	0.566592
	H9262	H	0.909411	0.282739	0.649757
	H9263	H	0.924396	0.282860	0.633860
	H9264	H	0.908983	0.532277	0.566176
	H9265	H	0.923975	0.532223	0.579654
	H9266	H	0.924312	-0.032579	0.633670
	H9267	H	0.909331	-0.032937	0.649537
	H9268	H	0.971290	-0.034287	0.629082
	H9269	H	0.986306	-0.034129	0.642503
	H9270	H	0.969744	0.532777	0.572248
	H9271	H	0.983504	0.532746	0.553714
	Al9272	Al	0.947402	-0.501186	0.739270
	Al9273	Al	0.947384	-0.250485	0.739256
	Al9274	Al	0.884896	-0.251325	0.676741
	Al9275	Al	0.884865	-0.500269	0.676790
	O9276	O	0.956759	-0.459917	0.752826
	O9277	O	0.947862	-0.375603	0.729701
	O9278	O	0.946522	-0.126276	0.748817
	O9279	O	1.000563	-0.459353	0.787596
	O9280	O	0.935892	-0.460253	0.750490
	O9281	O	0.886716	-0.458786	0.739957
	O9282	O	0.935962	-0.291949	0.750510
	O9283	O	0.938050	-0.209639	0.725164
	O9284	O	0.894273	-0.209587	0.690329
	O9285	O	0.956788	-0.292121	0.752807
	O9286	O	0.957984	-0.209980	0.726368
	O9287	O	1.000429	-0.209828	0.681579
	O9288	O	0.886744	-0.290527	0.739976
	O9289	O	0.938084	-0.041578	0.725123
	O9290	O	0.894285	-0.041690	0.690269
	O9291	O	1.000356	-0.041607	0.681454
	O9292	O	0.957959	-0.042115	0.726458
	O9293	O	1.000547	-0.291644	0.787664
	O9294	O	0.876160	-0.124696	0.740605
	O9295	O	1.010315	-0.375474	0.676215
	C9296	C	0.983206	-0.286081	0.772998
	C9297	C	0.987704	-0.375553	0.776569
	C9298	C	0.983169	-0.465238	0.773220
	C9299	C	0.974381	-0.465174	0.766588
	C9300	C	0.969844	-0.375785	0.763172
	C9301	C	0.974428	-0.286179	0.766359
	C9302	C	0.960483	-0.376052	0.755691
	C9303	C	0.996923	-0.375559	0.784501
	C9304	C	0.931723	-0.375877	0.749883
	C9305	C	0.921144	-0.375683	0.747921
	C9306	C	0.916177	-0.285542	0.746526
	C9307	C	0.906540	-0.285345	0.743643
	C9308	C	0.901555	-0.375027	0.742149
	C9309	C	0.906511	-0.465234	0.743522
	C9310	C	0.916160	-0.465508	0.746389
	C9311	C	0.890930	-0.374737	0.740534
	C9312	C	0.934451	-0.125595	0.722052
	C9313	C	0.925222	-0.125808	0.714091
	C9314	C	0.920739	-0.036266	0.710557
	C9315	C	0.911955	-0.036009	0.703928
	C9316	C	0.907383	-0.125539	0.700620
	C9317	C	0.911860	-0.215314	0.704086
	C9318	C	0.920649	-0.215356	0.710716
	C9319	C	0.898005	-0.125616	0.693132
	C9320	C	0.961589	-0.125991	0.722796
	C9321	C	0.970741	-0.125658	0.713290
	C9322	C	0.975106	-0.214704	0.708827
	C9323	C	0.983536	-0.214593	0.699869
	C9324	C	0.987844	-0.125717	0.695246
	C9325	C	0.983490	-0.036672	0.699781
	C9326	C	0.975067	-0.036658	0.708733
	C9327	C	0.996843	-0.125691	0.685306
	H9328	H	0.986800	-0.283727	0.696342
	H9329	H	0.971852	-0.283834	0.712322
	H9330	H	0.986647	-0.216310	0.775429
	H9331	H	0.971097	-0.216470	0.763630
	H9332	H	0.948268	-0.375721	0.719345
	H9333	H	0.945092	-0.126474	0.758911
	H9334	H	0.877829	-0.124401	0.730452
	H9335	H	1.010275	-0.375466	0.686488
	H9336	H	0.923988	-0.285182	0.713401
	H9337	H	0.908433	-0.284850	0.701573
	H9338	H	0.902796	-0.215509	0.742444
	H9339	H	0.919902	-0.215619	0.747638
	H9340	H	0.908566	0.033741	0.701268
	H9341	H	0.924121	0.033687	0.713065
	H9342	H	0.919932	-0.535333	0.747408
	H9343	H	0.902795	-0.535239	0.742245
	H9344	H	0.970952	-0.534747	0.764019
	H9345	H	0.986532	-0.535193	0.775850
	H9346	H	0.971793	0.032256	0.712177
	H9347	H	0.986714	0.032274	0.696167
	Al9348	Al	0.947386	-0.001488	0.739318
	Al9349	Al	0.947404	0.249634	0.739279
	Al9350	Al	0.884858	0.248693	0.676784
	Al9351	Al	0.884925	-0.000398	0.676651
	O9352	O	0.956782	0.040075	0.752913
	O9353	O	0.947899	0.124194	0.729715
	O9354	O	0.946461	0.374243	0.748721
	O9355	O	1.000631	0.040099	0.787580
	O9356	O	0.935897	0.040161	0.750513
	O9357	O	0.886733	0.040705	0.740090
	O9358	O	0.935945	0.208378	0.750614
	O9359	O	0.938128	0.290560	0.725044
	O9360	O	0.894319	0.290399	0.690288
	O9361	O	0.956704	0.208220	0.752925
	O9362	O	0.958034	0.289793	0.726435
	O9363	O	1.000393	0.290340	0.681422
	O9364	O	0.886783	0.208939	0.739928
	O9365	O	0.938103	0.458556	0.725088
	O9366	O	0.894304	0.458469	0.690289
	O9367	O	1.000422	0.458353	0.681485
	O9368	O	0.957983	0.457778	0.726374
	O9369	O	1.000642	0.208293	0.787584
	O9370	O	0.876173	0.375337	0.740565
	O9371	O	1.010281	0.124351	0.676198
	C9372	C	0.983222	0.214206	0.773173
	C9373	C	0.987732	0.124355	0.776634
	C9374	C	0.983196	0.034653	0.773191
	C9375	C	0.974383	0.034536	0.766613
	C9376	C	0.969840	0.124486	0.763278
	C9377	C	0.974399	0.214218	0.766586
	C9378	C	0.960444	0.124334	0.755821
	C9379	C	0.996999	0.124132	0.784501
	C9380	C	0.931728	0.124358	0.749973
	C9381	C	0.921151	0.124343	0.748015
	C9382	C	0.916207	0.214276	0.746602
	C9383	C	0.906552	0.214523	0.743655
	C9384	C	0.901586	0.124503	0.742156
	C9385	C	0.906545	0.034540	0.743464
	C9386	C	0.916200	0.034368	0.746396
	C9387	C	0.890963	0.124746	0.740550
	C9388	C	0.934497	0.374594	0.721992
	C9389	C	0.925225	0.374518	0.714084
	C9390	C	0.920706	0.464075	0.710615
	C9391	C	0.911916	0.463996	0.704012
	C9392	C	0.907388	0.374374	0.700669
	C9393	C	0.911958	0.284684	0.703956
	C9394	C	0.920746	0.284782	0.710563
	C9395	C	0.897993	0.374476	0.693155
	C9396	C	0.961629	0.373941	0.722796
	C9397	C	0.970778	0.374139	0.713249
	C9398	C	0.975119	0.285349	0.708709
	C9399	C	0.983549	0.285629	0.699747
	C9400	C	0.987864	0.374570	0.695177
	C9401	C	0.983554	0.463491	0.699813
	C9402	C	0.975116	0.463074	0.708773
	C9403	C	0.996874	0.374561	0.685272
	H9404	H	0.986823	0.216546	0.696287
	H9405	H	0.971886	0.216349	0.712261
	H9406	H	0.986619	0.284153	0.775666
	H9407	H	0.970981	0.283914	0.763984
	H9408	H	0.948366	0.123884	0.719435
	H9409	H	0.944882	0.374355	0.758880
	H9410	H	0.877859	0.375589	0.730492
	H9411	H	1.010300	0.124272	0.686434
	H9412	H	0.924147	0.214860	0.713105
	H9413	H	0.908583	0.214874	0.701299
	H9414	H	0.902873	0.284888	0.742603
	H9415	H	0.919937	0.284082	0.747868
	H9416	H	0.908519	0.533585	0.701437
	H9417	H	0.924125	0.534096	0.713159
	H9418	H	0.919882	-0.035792	0.747473
	H9419	H	0.902803	-0.035349	0.742211
	H9420	H	0.970990	-0.035423	0.764108
	H9421	H	0.986594	-0.035283	0.775726
	H9422	H	0.971856	0.531737	0.712318
	H9423	H	0.986826	0.532739	0.696355
	Al9424	Al	0.937446	-0.499825	0.812548
	Al9425	Al	0.937467	-0.249745	0.812571
	Al9426	Al	0.874968	-0.249962	0.750060
	Al9427	Al	0.874946	-0.499600	0.750079
	O9428	O	0.946336	-0.458776	0.827342
	O9429	O	0.938679	-0.375109	0.803038
	O9430	O	0.936338	-0.124816	0.822026
	O9431	O	0.991086	-0.458828	0.860305
	O9432	O	0.925702	-0.458762	0.822577
	O9433	O	0.876485	-0.458343	0.812086
	O9434	O	0.925691	-0.290563	0.822541
	O9435	O	0.928620	-0.209029	0.797751
	O9436	O	0.883876	-0.209602	0.764792
	O9437	O	0.946369	-0.290786	0.827348
	O9438	O	0.949265	-0.209081	0.802417
	O9439	O	0.998447	-0.209700	0.813046
	O9440	O	0.876508	-0.290122	0.812118
	O9441	O	0.928571	-0.041057	0.797815
	O9442	O	0.883812	-0.041756	0.764939
	O9443	O	0.998458	-0.041494	0.812918
	O9444	O	0.949272	-0.040822	0.802451
	O9445	O	0.991062	-0.290861	0.860277
	O9446	O	0.865976	-0.124491	0.813773
	O9447	O	1.008996	-0.376050	0.811279
	C9448	C	0.973234	-0.285137	0.846763
	C9449	C	0.977890	-0.374890	0.849937
	C9450	C	0.973224	-0.464554	0.846713
	C9451	C	0.964212	-0.464694	0.840777
	C9452	C	0.959563	-0.374827	0.837678
	C9453	C	0.964209	-0.285061	0.840829
	C9454	C	0.950067	-0.374917	0.830313
	C9455	C	0.987370	-0.374869	0.857288
	C9456	C	0.921480	-0.374636	0.822034
	C9457	C	0.910869	-0.374329	0.820422
	C9458	C	0.905889	-0.284480	0.819063
	C9459	C	0.896240	-0.284520	0.816167
	C9460	C	0.891284	-0.374404	0.814620
	C9461	C	0.896247	-0.464222	0.816144
	C9462	C	0.905895	-0.464314	0.819026
	C9463	C	0.880699	-0.374416	0.812749
	C9464	C	0.924901	-0.125178	0.794781
	C9465	C	0.915417	-0.125189	0.787388
	C9466	C	0.910717	-0.035663	0.784288
	C9467	C	0.901709	-0.035755	0.778333
	C9468	C	0.897072	-0.125597	0.775135
	C9469	C	0.901752	-0.215157	0.778244
	C9470	C	0.910761	-0.214907	0.784209
	C9471	C	0.887569	-0.125658	0.767793
	C9472	C	0.953479	-0.125032	0.802969
	C9473	C	0.964070	-0.125140	0.804654
	C9474	C	0.969029	-0.215143	0.806040
	C9475	C	0.978697	-0.215312	0.808926
	C9476	C	0.983671	-0.125452	0.810457
	C9477	C	0.978716	-0.035544	0.809017
	C9478	C	0.969045	-0.035365	0.806140
	C9479	C	0.994241	-0.125567	0.812393
	H9480	H	0.982440	-0.285434	0.809974
	H9481	H	0.965307	-0.285155	0.804812
	H9482	H	0.976692	-0.214914	0.848975
	H9483	H	0.960723	-0.215248	0.838570
	H9484	H	0.940388	-0.374945	0.792975
	H9485	H	0.934945	-0.124418	0.832253
	H9486	H	0.867434	-0.124766	0.803640
	H9487	H	1.007509	-0.376230	0.821395
	H9488	H	0.914212	-0.285209	0.786535
	H9489	H	0.898254	-0.285010	0.776029
	H9490	H	0.892534	-0.214243	0.815000
	H9491	H	0.909620	-0.214529	0.820163
	H9492	H	0.898215	0.034558	0.776156
	H9493	H	0.914174	0.034751	0.786656
	H9494	H	0.909622	-0.534457	0.820135
	H9495	H	0.892523	-0.534352	0.814954
	H9496	H	0.960719	-0.534619	0.838493
	H9497	H	0.976705	-0.535051	0.848917
	H9498	H	0.965340	0.034883	0.804979
	H9499	H	0.982440	0.034601	0.810117
	Al9500	Al	0.937489	0.000136	0.812527
	Al9501	Al	0.937459	0.250070	0.812552
	Al9502	Al	0.875029	0.250360	0.750033
	Al9503	Al	0.874924	0.000136	0.750138
	O9504	O	0.946394	0.041289	0.827297
	O9505	O	0.938680	0.125230	0.802996
	O9506	O	0.936320	0.375244	0.822078
	O9507	O	0.991063	0.041311	0.860255
	O9508	O	0.925722	0.041064	0.822634
	O9509	O	0.876477	0.041764	0.811894
	O9510	O	0.925708	0.209256	0.822601
	O9511	O	0.928545	0.291054	0.797884
	O9512	O	0.883933	0.291110	0.764742
	O9513	O	0.946419	0.209365	0.827265
	O9514	O	0.949231	0.291289	0.802321
	O9515	O	0.998393	0.289993	0.812910
	O9516	O	0.876515	0.209995	0.812105
	O9517	O	0.928605	0.459140	0.797776
	O9518	O	0.883861	0.459017	0.764762
	O9519	O	0.998436	0.458234	0.812957
	O9520	O	0.949236	0.459569	0.802490
	O9521	O	0.991090	0.209241	0.860268
	O9522	O	0.865916	0.375464	0.813828
	O9523	O	1.009051	0.123723	0.811218
	C9524	C	0.973248	0.215085	0.846743
	C9525	C	0.977882	0.125373	0.849920
	C9526	C	0.973222	0.035671	0.846820
	C9527	C	0.964207	0.035540	0.840829
	C9528	C	0.959564	0.125292	0.837684
	C9529	C	0.964236	0.215023	0.840751
	C9530	C	0.950111	0.125221	0.830221
	C9531	C	0.987358	0.125384	0.857333
	C9532	C	0.921491	0.125064	0.822089
	C9533	C	0.910906	0.125020	0.820379
	C9534	C	0.905930	0.215004	0.819026
	C9535	C	0.896273	0.215178	0.816081
	C9536	C	0.891298	0.125448	0.814487
	C9537	C	0.896257	0.035418	0.815979
	C9538	C	0.905919	0.035205	0.818911
	C9539	C	0.880708	0.125653	0.812646
	C9540	C	0.924876	0.375180	0.794874
	C9541	C	0.915401	0.375414	0.787463
	C9542	C	0.910767	0.465242	0.784267
	C9543	C	0.901766	0.465052	0.778292
	C9544	C	0.897085	0.375487	0.775175
	C9545	C	0.901727	0.285737	0.778410
	C9546	C	0.910728	0.285890	0.784382
	C9547	C	0.887593	0.375290	0.767752
	C9548	C	0.953426	0.375426	0.802975
	C9549	C	0.964045	0.375208	0.804649
	C9550	C	0.968971	0.285118	0.806111
	C9551	C	0.978635	0.284831	0.809013
	C9552	C	0.983624	0.374460	0.810491
	C9553	C	0.978719	0.464632	0.808924
	C9554	C	0.969051	0.464966	0.806022
	C9555	C	0.994212	0.374203	0.812371
	H9556	H	0.982322	0.214622	0.810100
	H9557	H	0.965228	0.215190	0.804944
	H9558	H	0.976718	0.285317	0.848976
	H9559	H	0.960813	0.285081	0.838451
	H9560	H	0.940349	0.125219	0.792827
	H9561	H	0.934866	0.375336	0.832285
	H9562	H	0.867417	0.375822	0.803674
	H9563	H	1.007609	0.123372	0.821345
	H9564	H	0.914230	0.215878	0.786663
	H9565	H	0.898285	0.215440	0.776158
	H9566	H	0.892550	0.285335	0.814931
	H9567	H	0.909666	0.285138	0.820095
	H9568	H	0.898274	0.535270	0.775950
	H9569	H	0.914219	0.535525	0.786454
	H9570	H	0.909635	-0.034881	0.819947
	H9571	H	0.892543	-0.034594	0.814752
	H9572	H	0.960761	-0.034740	0.838584
	H9573	H	0.976660	-0.034885	0.849114
	H9574	H	0.965373	0.534941	0.804830
	H9575	H	0.982485	0.534530	0.810025
	Al9576	Al	0.927600	-0.498879	0.885716
	Al9577	Al	0.927527	-0.249839	0.885827
	Al9578	Al	0.865072	-0.248927	0.823274
	Al9579	Al	0.865032	-0.500103	0.823305
	O9580	O	0.936889	-0.458283	0.899892
	O9581	O	0.928429	-0.373963	0.876349
	O9582	O	0.927072	-0.124395	0.895349
	O9583	O	0.980725	-0.458058	0.934665
	O9584	O	0.916994	-0.458429	0.898736
	O9585	O	0.874549	-0.458412	0.943688
	O9586	O	0.916962	-0.290382	0.898754
	O9587	O	0.918183	-0.207983	0.872210
	O9588	O	0.874340	-0.208030	0.837452
	O9589	O	0.936852	-0.290111	0.899987
	O9590	O	0.938980	-0.208409	0.874499
	O9591	O	0.988172	-0.209164	0.885025
	O9592	O	0.874545	-0.290315	0.943690
	O9593	O	0.918165	-0.039894	0.872203
	O9594	O	0.874375	-0.039863	0.837370
	O9595	O	0.988209	-0.040932	0.885024
	O9596	O	0.939019	-0.040090	0.874611
	O9597	O	0.980691	-0.289737	0.934711
	O9598	O	0.864691	-0.124617	0.948935
	O9599	O	0.998794	-0.375082	0.884567
	C9600	C	0.963043	-0.284372	0.921057
	C9601	C	0.967587	-0.373983	0.924376
	C9602	C	0.963030	-0.463797	0.921110
	C9603	C	0.954222	-0.463949	0.914530
	C9604	C	0.949734	-0.374310	0.911009
	C9605	C	0.954243	-0.284635	0.914478
	C9606	C	0.940490	-0.374062	0.903093
	C9607	C	0.976987	-0.373929	0.931828
	C9608	C	0.913359	-0.374447	0.902377
	C9609	C	0.904166	-0.374324	0.911836
	C9610	C	0.899796	-0.285383	0.916293
	C9611	C	0.891340	-0.285350	0.925225
	C9612	C	0.887072	-0.374302	0.929907
	C9613	C	0.891411	-0.463138	0.925368
	C9614	C	0.899858	-0.463190	0.916427
	C9615	C	0.878074	-0.374382	0.939873
	C9616	C	0.914436	-0.123981	0.869358
	C9617	C	0.905037	-0.123906	0.861941
	C9618	C	0.900494	-0.034317	0.858629
	C9619	C	0.891714	-0.034389	0.852030
	C9620	C	0.887185	-0.123928	0.848539
	C9621	C	0.891714	-0.213425	0.851996
	C9622	C	0.900491	-0.213451	0.858582
	C9623	C	0.877968	-0.123830	0.840574
	C9624	C	0.943195	-0.124376	0.875181
	C9625	C	0.953800	-0.124152	0.877063
	C9626	C	0.958766	-0.214182	0.878521
	C9627	C	0.968409	-0.214414	0.881430
	C9628	C	0.973381	-0.124561	0.882889
	C9629	C	0.968422	-0.034526	0.881573
	C9630	C	0.958766	-0.034241	0.878673
	C9631	C	0.983980	-0.124955	0.884515
	H9632	H	0.972131	-0.284776	0.882472
	H9633	H	0.955042	-0.283699	0.877295
	H9634	H	0.966468	-0.214649	0.923547
	H9635	H	0.950871	-0.214699	0.911825
	H9636	H	0.929892	-0.373574	0.866215
	H9637	H	0.926699	-0.124113	0.905729
	H9638	H	0.864633	-0.124815	0.938733
	H9639	H	0.997232	-0.375246	0.894687
	H9640	H	0.903891	-0.283032	0.861150
	H9641	H	0.888326	-0.283374	0.849415
	H9642	H	0.888067	-0.216355	0.928720
	H9643	H	0.903044	-0.216314	0.912781
	H9644	H	0.888339	0.035299	0.849438
	H9645	H	0.903897	0.035382	0.861219
	H9646	H	0.903173	-0.532339	0.913046
	H9647	H	0.888201	-0.531916	0.928954
	H9648	H	0.950832	-0.533834	0.911966
	H9649	H	0.966430	-0.533617	0.923677
	H9650	H	0.955065	0.035931	0.877560
	H9651	H	0.972165	0.035480	0.882761
	Al9652	Al	0.927538	0.001271	0.885832
	Al9653	Al	0.927557	0.250163	0.885830
	Al9654	Al	0.865048	0.251019	0.823276
	Al9655	Al	0.865059	-0.000108	0.823224
	O9656	O	0.936772	0.041589	0.900146
	O9657	O	0.928461	0.125829	0.876386
	O9658	O	0.927114	0.375812	0.895323
	O9659	O	0.980661	0.041383	0.934726
	O9660	O	0.916955	0.041632	0.898725
	O9661	O	0.874553	0.041547	0.943626
	O9662	O	0.916983	0.209414	0.898748
	O9663	O	0.918162	0.291291	0.872219
	O9664	O	0.874312	0.291475	0.837515
	O9665	O	0.936884	0.209660	0.899948
	O9666	O	0.939005	0.291452	0.874527
	O9667	O	0.988198	0.290978	0.885181
	O9668	O	0.874554	0.209517	0.943625
	O9669	O	0.918234	0.459449	0.872153
	O9670	O	0.874306	0.459485	0.837411
	O9671	O	0.988190	0.459159	0.885211
	O9672	O	0.939024	0.459773	0.874460
	O9673	O	0.980730	0.209555	0.934652
	O9674	O	0.864687	0.375566	0.948964
	O9675	O	0.998764	0.124957	0.884488
	C9676	C	0.963056	0.215502	0.920954
	C9677	C	0.967597	0.125732	0.924326
	C9678	C	0.963008	0.036170	0.921099
	C9679	C	0.954225	0.036080	0.914539
	C9680	C	0.949725	0.125692	0.911015
	C9681	C	0.954263	0.215372	0.914405
	C9682	C	0.940448	0.125556	0.903104
	C9683	C	0.976997	0.125679	0.931824
	C9684	C	0.913339	0.125780	0.902342
	C9685	C	0.904197	0.125511	0.911858
	C9686	C	0.899815	0.214658	0.916349
	C9687	C	0.891380	0.214740	0.925283
	C9688	C	0.887074	0.125673	0.929955
	C9689	C	0.891425	0.036626	0.925405
	C9690	C	0.899853	0.036412	0.916470
	C9691	C	0.878085	0.125490	0.939836
	C9692	C	0.914493	0.375480	0.869313
	C9693	C	0.905088	0.375825	0.861871
	C9694	C	0.900589	0.465522	0.858406
	C9695	C	0.891759	0.465422	0.851815
	C9696	C	0.887193	0.375708	0.848448
	C9697	C	0.891674	0.286205	0.852064
	C9698	C	0.900497	0.286136	0.858659
	C9699	C	0.877919	0.375744	0.840580
	C9700	C	0.943230	0.375534	0.875134
	C9701	C	0.953811	0.375649	0.877105
	C9702	C	0.958775	0.285580	0.878507
	C9703	C	0.968432	0.285296	0.881486
	C9704	C	0.973391	0.375032	0.883013
	C9705	C	0.968434	0.465337	0.881683
	C9706	C	0.958786	0.465496	0.878706
	C9707	C	0.983977	0.375057	0.884689
	H9708	H	0.972157	0.215069	0.882514
	H9709	H	0.955069	0.215438	0.877243
	H9710	H	0.966490	0.285102	0.923463
	H9711	H	0.950852	0.285193	0.911801
	H9712	H	0.929893	0.125763	0.866169
	H9713	H	0.926659	0.375912	0.905700
	H9714	H	0.864628	0.375865	0.938694
	H9715	H	0.997151	0.124807	0.894657
	H9716	H	0.903861	0.216329	0.861393
	H9717	H	0.888270	0.216397	0.849633
	H9718	H	0.888107	0.283581	0.928778
	H9719	H	0.903078	0.283700	0.912796
	H9720	H	0.888402	0.535358	0.849180
	H9721	H	0.904008	0.535066	0.860844
	H9722	H	0.903134	-0.032687	0.912982
	H9723	H	0.888185	-0.032317	0.929006
	H9724	H	0.950793	-0.033800	0.912062
	H9725	H	0.966400	-0.033487	0.923732
	H9726	H	0.955075	0.535625	0.877562
	H9727	H	0.972167	0.535275	0.882855
