data_Molecule from HDF5

_cell_length_a		136.397419
_cell_length_b		13.359487
_cell_length_c		101.855468
_cell_angle_alpha	89.997266
_cell_angle_beta	90.008386
_cell_angle_gamma	89.998038
_symmetry_space_group_name_H-M	'P 1'
_symmetry_Int_Tables_number		1

loop_
	_symmetry_equiv_pos_as_xyz
	x,y,z

loop_
	_atom_site_label
	_atom_site_type_symbol
	_atom_site_fract_x
	_atom_site_fract_y
	_atom_site_fract_z
	Al0	Al	0.062532	-0.500240	0.062499
	Al1	Al	0.062529	-0.250091	0.062500
	Al2	Al	-0.000030	-0.250074	0.000160
	Al3	Al	-0.000024	-0.499900	0.000119
	O4	O	0.072608	-0.459256	0.074459
	O5	O	0.062479	-0.375229	0.054324
	O6	O	0.062523	-0.125050	0.070677
	O7	O	0.114944	-0.459405	0.113014
	O8	O	0.052377	-0.458814	0.074345
	O9	O	0.010115	-0.459021	0.113086
	O10	O	0.052365	-0.290836	0.074333
	O11	O	0.052492	-0.208943	0.050470
	O12	O	0.010049	-0.209507	0.012074
	O13	O	0.072611	-0.291213	0.074468
	O14	O	0.072661	-0.209484	0.050611
	O15	O	0.114969	-0.209363	0.011926
	O16	O	0.010117	-0.290877	0.113114
	O17	O	0.052385	-0.040711	0.050551
	O18	O	0.010095	-0.041064	0.012057
	O19	O	0.114920	-0.041355	0.011880
	O20	O	0.072611	-0.041123	0.050551
	O21	O	0.114926	-0.291229	0.113048
	O22	O	-0.000033	-0.124958	0.116781
	O23	O	0.125049	-0.375023	0.008237
	C24	C	0.097960	-0.286260	0.097631
	C25	C	0.102283	-0.375109	0.101519
	C26	C	0.097978	-0.464093	0.097575
	C27	C	0.089561	-0.464180	0.089899
	C28	C	0.085236	-0.375339	0.085995
	C29	C	0.089532	-0.286389	0.089945
	C30	C	0.076169	-0.375254	0.077663
	C31	C	0.111350	-0.375253	0.109845
	C32	C	0.048805	-0.374943	0.077560
	C33	C	0.039785	-0.374990	0.085968
	C34	C	0.035483	-0.285974	0.089912
	C35	C	0.027061	-0.286032	0.097630
	C36	C	0.022745	-0.375033	0.101551
	C37	C	0.027047	-0.463990	0.097596
	C38	C	0.035463	-0.463967	0.089865
	C39	C	0.013692	-0.374865	0.109891
	C40	C	0.048842	-0.124942	0.047354
	C41	C	0.039792	-0.125208	0.038992
	C42	C	0.035417	-0.035838	0.035213
	C43	C	0.026988	-0.035902	0.027548
	C44	C	0.022714	-0.125226	0.023590
	C45	C	0.027039	-0.214525	0.027457
	C46	C	0.035480	-0.214400	0.035100
	C47	C	0.013657	-0.125428	0.015219
	C48	C	0.076198	-0.125118	0.047394
	C49	C	0.085233	-0.125461	0.039030
	C50	C	0.089592	-0.214423	0.035148
	C51	C	0.098020	-0.214530	0.027461
	C52	C	0.102308	-0.125468	0.023482
	C53	C	0.097967	-0.036295	0.027394
	C54	C	0.089541	-0.036524	0.035078
	C55	C	0.111345	-0.125261	0.015083
	H56	H	0.101289	-0.283250	0.024466
	H57	H	0.086370	-0.283485	0.038210
	H58	H	0.101186	-0.217073	0.100659
	H59	H	0.086231	-0.217473	0.086985
	H60	H	0.062428	-0.374906	0.045368
	H61	H	0.062550	-0.125249	0.079644
	H62	H	-0.000140	-0.124358	0.107778
	H63	H	0.124990	-0.374934	0.017185
	H64	H	0.038724	-0.283573	0.038117
	H65	H	0.023804	-0.283699	0.024469
	H66	H	0.023827	-0.217111	0.100650
	H67	H	0.038726	-0.216657	0.086910
	H68	H	0.023712	0.033036	0.024603
	H69	H	0.038612	0.033205	0.038337
	H70	H	0.038656	-0.532804	0.086775
	H71	H	0.023776	-0.533020	0.100536
	H72	H	0.086282	-0.533309	0.086952
	H73	H	0.101227	-0.533121	0.100569
	H74	H	0.086280	0.032608	0.038086
	H75	H	0.101206	0.033018	0.024359
	Al76	Al	0.062518	-0.000066	0.062477
	Al77	Al	0.062487	0.249856	0.062516
	Al78	Al	-0.000026	0.249869	0.000114
	Al79	Al	0.000015	0.000062	0.000127
	O80	O	0.072598	0.040704	0.074449
	O81	O	0.062516	0.124893	0.054321
	O82	O	0.062511	0.374893	0.070736
	O83	O	0.114944	0.040786	0.113021
	O84	O	0.052394	0.040664	0.074455
	O85	O	0.010058	0.040860	0.113015
	O86	O	0.052371	0.208916	0.074421
	O87	O	0.052421	0.290945	0.050479
	O88	O	0.010078	0.290934	0.012032
	O89	O	0.072572	0.208893	0.074497
	O90	O	0.072620	0.290926	0.050612
	O91	O	0.114962	0.291090	0.012026
	O92	O	0.010113	0.209134	0.113057
	O93	O	0.052431	0.458922	0.050554
	O94	O	0.010012	0.458950	0.012136
	O95	O	0.114870	0.459199	0.011850
	O96	O	0.072613	0.459061	0.050609
	O97	O	0.114912	0.208781	0.113111
	O98	O	0.000004	0.375217	0.116777
	O99	O	0.124990	0.124823	0.008233
	C100	C	0.097959	0.214013	0.097593
	C101	C	0.102288	0.125009	0.101508
	C102	C	0.098001	0.035981	0.097572
	C103	C	0.089571	0.035808	0.089906
	C104	C	0.085206	0.124767	0.086036
	C105	C	0.089519	0.213817	0.089934
	C106	C	0.076162	0.124666	0.077655
	C107	C	0.111345	0.124877	0.109868
	C108	C	0.048812	0.124907	0.077626
	C109	C	0.039768	0.125009	0.086021
	C110	C	0.035466	0.214311	0.089928
	C111	C	0.027060	0.214374	0.097630
	C112	C	0.022717	0.125041	0.101517
	C113	C	0.027039	0.035731	0.097632
	C114	C	0.035450	0.035798	0.089943
	C115	C	0.013662	0.124977	0.109862
	C116	C	0.048853	0.375124	0.047339
	C117	C	0.039808	0.375038	0.038976
	C118	C	0.035433	0.464154	0.035188
	C119	C	0.026984	0.464270	0.027550
	C120	C	0.022676	0.375274	0.023598
	C121	C	0.027067	0.286154	0.027388
	C122	C	0.035506	0.286009	0.035024
	C123	C	0.013657	0.375171	0.015213
	C124	C	0.076189	0.374764	0.047395
	C125	C	0.085215	0.375078	0.038986
	C126	C	0.089579	0.286133	0.035145
	C127	C	0.098006	0.286224	0.027476
	C128	C	0.102284	0.375257	0.023505
	C129	C	0.097943	0.464086	0.027358
	C130	C	0.089509	0.464047	0.035011
	C131	C	0.111335	0.375270	0.015133
	H132	H	0.101272	0.217183	0.024586
	H133	H	0.086349	0.217316	0.038214
	H134	H	0.101233	0.282991	0.100557
	H135	H	0.086274	0.282942	0.086885
	H136	H	0.062480	0.125396	0.045323
	H137	H	0.062488	0.374328	0.079709
	H138	H	0.000068	0.375815	0.107824
	H139	H	0.125085	0.124940	0.017202
	H140	H	0.038791	0.216977	0.037927
	H141	H	0.023853	0.217260	0.024233
	H142	H	0.023816	0.283875	0.100674
	H143	H	0.038741	0.283446	0.086921
	H144	H	0.023729	0.533504	0.024576
	H145	H	0.038676	0.533125	0.038255
	H146	H	0.038685	-0.033318	0.086895
	H147	H	0.023780	-0.033652	0.100634
	H148	H	0.086353	-0.033167	0.086862
	H149	H	0.101284	-0.032945	0.100531
	H150	H	0.086265	0.533034	0.037952
	H151	H	0.101182	0.532923	0.024272
	Al152	Al	0.062493	-0.499872	0.187442
	Al153	Al	0.062513	-0.249896	0.187476
	Al154	Al	-0.000014	-0.250046	0.125003
	Al155	Al	-0.000008	-0.499815	0.124992
	O156	O	0.072591	-0.459324	0.199383
	O157	O	0.062486	-0.374831	0.179241
	O158	O	0.062477	-0.124695	0.195648
	O159	O	0.114954	-0.458728	0.237901
	O160	O	0.052353	-0.458993	0.199301
	O161	O	0.010115	-0.459044	0.238058
	O162	O	0.052365	-0.290863	0.199329
	O163	O	0.052437	-0.208930	0.175479
	O164	O	0.010084	-0.208747	0.136907
	O165	O	0.072582	-0.291066	0.199386
	O166	O	0.072652	-0.209001	0.175588
	O167	O	0.114946	-0.208744	0.136841
	O168	O	0.010006	-0.290957	0.237912
	O169	O	0.052436	-0.040690	0.175515
	O170	O	0.010081	-0.040583	0.136897
	O171	O	0.114894	-0.040678	0.136838
	O172	O	0.072611	-0.040821	0.175484
	O173	O	0.114828	-0.290663	0.238112
	O174	O	-0.000004	-0.125077	0.241675
	O175	O	0.125002	-0.375016	0.133189
	C176	C	0.097906	-0.286058	0.222563
	C177	C	0.102260	-0.374980	0.226453
	C178	C	0.098012	-0.464056	0.222436
	C179	C	0.089585	-0.464133	0.214767
	C180	C	0.085204	-0.375234	0.210941
	C181	C	0.089479	-0.286237	0.214897
	C182	C	0.076142	-0.375348	0.202592
	C183	C	0.111324	-0.374889	0.234829
	C184	C	0.048795	-0.374807	0.202505
	C185	C	0.039768	-0.374615	0.210911
	C186	C	0.035398	-0.285645	0.214770
	C187	C	0.026975	-0.285862	0.222454
	C188	C	0.022704	-0.374826	0.226475
	C189	C	0.027079	-0.463842	0.222601
	C190	C	0.035501	-0.463597	0.214933
	C191	C	0.013629	-0.374903	0.234786
	C192	C	0.048864	-0.124751	0.172311
	C193	C	0.039796	-0.124725	0.163970
	C194	C	0.035491	-0.035697	0.160031
	C195	C	0.027068	-0.035772	0.152365
	C196	C	0.022704	-0.124753	0.148488
	C197	C	0.027052	-0.213870	0.152350
	C198	C	0.035479	-0.213887	0.160023
	C199	C	0.013681	-0.124734	0.140065
	C200	C	0.076227	-0.124980	0.172336
	C201	C	0.085264	-0.124965	0.163979
	C202	C	0.089619	-0.213921	0.160092
	C203	C	0.098032	-0.213872	0.152389
	C204	C	0.102300	-0.124963	0.148366
	C205	C	0.097944	-0.036032	0.152245
	C206	C	0.089527	-0.036126	0.159929
	C207	C	0.111350	-0.124856	0.140042
	H208	H	0.101315	-0.282909	0.149412
	H209	H	0.086411	-0.282855	0.163188
	H210	H	0.101127	-0.217497	0.225582
	H211	H	0.086202	-0.217493	0.211923
	H212	H	0.062350	-0.374823	0.170347
	H213	H	0.062429	-0.124334	0.204613
	H214	H	-0.000108	-0.124919	0.232639
	H215	H	0.125077	-0.375355	0.142183
	H216	H	0.038800	-0.282815	0.162958
	H217	H	0.023836	-0.282848	0.149291
	H218	H	0.023672	-0.216888	0.225347
	H219	H	0.038590	-0.216493	0.211609
	H220	H	0.023839	0.033340	0.149276
	H221	H	0.038782	0.033109	0.162926
	H222	H	0.038777	-0.532577	0.211963
	H223	H	0.023863	-0.532540	0.225711
	H224	H	0.086386	-0.533221	0.211677
	H225	H	0.101325	-0.532574	0.225356
	H226	H	0.086261	0.032993	0.162894
	H227	H	0.101159	0.032917	0.149182
	Al228	Al	0.062515	0.000193	0.187451
	Al229	Al	0.062525	0.250170	0.187442
	Al230	Al	-0.000022	0.249865	0.124942
	Al231	Al	-0.000027	-0.000077	0.124959
	O232	O	0.072616	0.040722	0.199361
	O233	O	0.062479	0.125101	0.179254
	O234	O	0.062499	0.375087	0.195656
	O235	O	0.114960	0.040865	0.237889
	O236	O	0.052344	0.041068	0.199373
	O237	O	0.010075	0.041275	0.238005
	O238	O	0.052382	0.209119	0.199351
	O239	O	0.052422	0.290928	0.175467
	O240	O	0.010106	0.291000	0.136854
	O241	O	0.072585	0.208955	0.199413
	O242	O	0.072644	0.291142	0.175587
	O243	O	0.114923	0.290841	0.136874
	O244	O	0.010000	0.209399	0.237916
	O245	O	0.052437	0.459143	0.175482
	O246	O	0.010093	0.459197	0.136940
	O247	O	0.114891	0.458865	0.136803
	O248	O	0.072642	0.459209	0.175530
	O249	O	0.114845	0.208922	0.238043
	O250	O	-0.000022	0.375248	0.241690
	O251	O	0.125074	0.124955	0.133225
	C252	C	0.097968	0.214008	0.222507
	C253	C	0.102301	0.124829	0.226395
	C254	C	0.097984	0.035869	0.222474
	C255	C	0.089557	0.035974	0.214794
	C256	C	0.085237	0.124991	0.210889
	C257	C	0.089537	0.214054	0.214834
	C258	C	0.076165	0.124871	0.202576
	C259	C	0.111332	0.124980	0.234758
	C260	C	0.048798	0.125116	0.202527
	C261	C	0.039738	0.125517	0.210883
	C262	C	0.035390	0.214468	0.214740
	C263	C	0.026959	0.214439	0.222428
	C264	C	0.022682	0.125493	0.226432
	C265	C	0.027064	0.036417	0.222653
	C266	C	0.035498	0.036455	0.214938
	C267	C	0.013623	0.125363	0.234776
	C268	C	0.048849	0.375045	0.172300
	C269	C	0.039809	0.375012	0.163947
	C270	C	0.035476	0.464031	0.160043
	C271	C	0.027037	0.463987	0.152379
	C272	C	0.022721	0.374928	0.148462
	C273	C	0.027042	0.285917	0.152377
	C274	C	0.035471	0.285965	0.160062
	C275	C	0.013672	0.375022	0.140061
	C276	C	0.076229	0.375147	0.172373
	C277	C	0.085285	0.375040	0.164004
	C278	C	0.089608	0.286297	0.160104
	C279	C	0.098003	0.285983	0.152397
	C280	C	0.102293	0.374703	0.148420
	C281	C	0.097995	0.463486	0.152339
	C282	C	0.089581	0.463705	0.160041
	C283	C	0.111330	0.374757	0.140061
	H284	H	0.101261	0.216826	0.149435
	H285	H	0.086367	0.217526	0.163148
	H286	H	0.101204	0.283106	0.225547
	H287	H	0.086244	0.283339	0.211944
	H288	H	0.062377	0.124838	0.170268
	H289	H	0.062522	0.375426	0.204606
	H290	H	0.000051	0.375712	0.232733
	H291	H	0.125013	0.125083	0.142176
	H292	H	0.038703	0.216794	0.163056
	H293	H	0.023779	0.216767	0.149397
	H294	H	0.023681	0.283680	0.225386
	H295	H	0.038582	0.283706	0.211713
	H296	H	0.023774	0.533095	0.149369
	H297	H	0.038715	0.532989	0.163023
	H298	H	0.038819	-0.032668	0.212031
	H299	H	0.023885	-0.032969	0.225766
	H300	H	0.086261	-0.033311	0.211828
	H301	H	0.101230	-0.033789	0.225485
	H302	H	0.086348	0.532589	0.163052
	H303	H	0.101260	0.532077	0.149344
	Al304	Al	0.062520	-0.499717	0.312450
	Al305	Al	0.062464	-0.249813	0.312453
	Al306	Al	-0.000014	-0.249950	0.249921
	Al307	Al	-0.000020	-0.499913	0.249951
	O308	O	0.072657	-0.459002	0.324301
	O309	O	0.062462	-0.375022	0.304228
	O310	O	0.062450	-0.124921	0.320639
	O311	O	0.114850	-0.458956	0.363071
	O312	O	0.052336	-0.459223	0.324324
	O313	O	0.010109	-0.459034	0.363063
	O314	O	0.052384	-0.291173	0.324354
	O315	O	0.052404	-0.209283	0.300474
	O316	O	0.010119	-0.208727	0.261791
	O317	O	0.072541	-0.290756	0.324432
	O318	O	0.072595	-0.209407	0.300535
	O319	O	0.114956	-0.209107	0.261894
	O320	O	0.010093	-0.290818	0.363032
	O321	O	0.052387	-0.040895	0.300513
	O322	O	0.010087	-0.040536	0.261851
	O323	O	0.114878	-0.040798	0.261801
	O324	O	0.072610	-0.041337	0.300567
	O325	O	0.114779	-0.290889	0.363130
	O326	O	-0.000025	-0.124900	0.366779
	O327	O	0.125002	-0.375203	0.258073
	C328	C	0.097896	-0.285647	0.347609
	C329	C	0.102250	-0.374766	0.351426
	C330	C	0.097964	-0.463909	0.347441
	C331	C	0.089558	-0.463981	0.339740
	C332	C	0.085212	-0.374806	0.335895
	C333	C	0.089504	-0.285793	0.339890
	C334	C	0.076187	-0.374779	0.327507
	C335	C	0.111268	-0.374997	0.359882
	C336	C	0.048792	-0.375315	0.327524
	C337	C	0.039782	-0.375238	0.335967
	C338	C	0.035472	-0.286228	0.339900
	C339	C	0.027077	-0.286028	0.347624
	C340	C	0.022740	-0.374942	0.351531
	C341	C	0.027051	-0.463862	0.347625
	C342	C	0.035440	-0.464087	0.339897
	C343	C	0.013679	-0.374995	0.359885
	C344	C	0.048811	-0.124933	0.297290
	C345	C	0.039771	-0.124810	0.288917
	C346	C	0.035486	-0.035535	0.284990
	C347	C	0.027062	-0.035531	0.277274
	C348	C	0.022714	-0.124614	0.273389
	C349	C	0.027028	-0.213799	0.277266
	C350	C	0.035454	-0.213797	0.284959
	C351	C	0.013661	-0.124553	0.265024
	C352	C	0.076184	-0.125395	0.297369
	C353	C	0.085228	-0.125444	0.288976
	C354	C	0.089545	-0.214339	0.285028
	C355	C	0.097975	-0.214400	0.277325
	C356	C	0.102287	-0.125248	0.273415
	C357	C	0.097943	-0.036342	0.277319
	C358	C	0.089533	-0.036447	0.285026
	C359	C	0.111323	-0.125056	0.265071
	H360	H	0.101228	-0.283582	0.274302
	H361	H	0.086299	-0.283467	0.288025
	H362	H	0.101094	-0.216588	0.350726
	H363	H	0.086256	-0.216892	0.336879
	H364	H	0.062544	-0.375078	0.295297
	H365	H	0.062488	-0.125453	0.329635
	H366	H	-0.000009	-0.125029	0.357769
	H367	H	0.124802	-0.375387	0.267061
	H368	H	0.038699	-0.282967	0.287950
	H369	H	0.023773	-0.282892	0.274287
	H370	H	0.023836	-0.217251	0.350630
	H371	H	0.038744	-0.217681	0.336899
	H372	H	0.023818	0.033426	0.274273
	H373	H	0.038743	0.033481	0.287973
	H374	H	0.038668	-0.533091	0.336922
	H375	H	0.023790	-0.532724	0.350604
	H376	H	0.086344	-0.533061	0.336620
	H377	H	0.101213	-0.532602	0.350492
	H378	H	0.086288	0.032847	0.288035
	H379	H	0.101173	0.032754	0.274313
	Al380	Al	0.062474	0.000312	0.312477
	Al381	Al	0.062469	0.250420	0.312466
	Al382	Al	-0.000041	0.250162	0.249896
	Al383	Al	-0.000029	0.000110	0.249876
	O384	O	0.072619	0.041020	0.324355
	O385	O	0.062526	0.125133	0.304255
	O386	O	0.062472	0.375404	0.320690
	O387	O	0.114885	0.040985	0.363011
	O388	O	0.052342	0.041189	0.324389
	O389	O	0.010099	0.041362	0.363121
	O390	O	0.052384	0.209114	0.324403
	O391	O	0.052351	0.290955	0.300569
	O392	O	0.010077	0.290803	0.261795
	O393	O	0.072564	0.209126	0.324422
	O394	O	0.072632	0.290798	0.300558
	O395	O	0.114963	0.291396	0.261929
	O396	O	0.010044	0.209431	0.363079
	O397	O	0.052394	0.458943	0.300550
	O398	O	0.010040	0.458839	0.261913
	O399	O	0.114845	0.459373	0.261792
	O400	O	0.072569	0.458630	0.300502
	O401	O	0.114900	0.209191	0.363022
	O402	O	-0.000015	0.375160	0.366791
	O403	O	0.124957	0.124933	0.258134
	C404	C	0.097880	0.214372	0.347678
	C405	C	0.102241	0.125335	0.351499
	C406	C	0.097962	0.036333	0.347504
	C407	C	0.089545	0.036451	0.339804
	C408	C	0.085184	0.125415	0.335995
	C409	C	0.089458	0.214602	0.339972
	C410	C	0.076160	0.125145	0.327581
	C411	C	0.111302	0.125133	0.359847
	C412	C	0.048786	0.125180	0.327568
	C413	C	0.039746	0.125428	0.335954
	C414	C	0.035403	0.214384	0.339828
	C415	C	0.026984	0.214218	0.347528
	C416	C	0.022678	0.125420	0.351503
	C417	C	0.027028	0.036482	0.347638
	C418	C	0.035441	0.036588	0.339930
	C419	C	0.013659	0.125533	0.359870
	C420	C	0.048776	0.374978	0.297345
	C421	C	0.039754	0.375204	0.288970
	C422	C	0.035433	0.464063	0.285022
	C423	C	0.026999	0.464015	0.277356
	C424	C	0.022674	0.374985	0.273420
	C425	C	0.027019	0.286202	0.277317
	C426	C	0.035429	0.286244	0.285022
	C427	C	0.013632	0.374786	0.265058
	C428	C	0.076178	0.374723	0.297330
	C429	C	0.085204	0.374664	0.288935
	C430	C	0.089534	0.285742	0.285005
	C431	C	0.097968	0.285947	0.277327
	C432	C	0.102296	0.374932	0.273454
	C433	C	0.097951	0.463869	0.277348
	C434	C	0.089514	0.463582	0.285021
	C435	C	0.111316	0.375408	0.265073
	H436	H	0.101194	0.216990	0.274297
	H437	H	0.086266	0.216605	0.287940
	H438	H	0.101097	0.283346	0.350771
	H439	H	0.086188	0.283802	0.337008
	H440	H	0.062724	0.124581	0.295319
	H441	H	0.062427	0.375441	0.329697
	H442	H	0.000032	0.374298	0.357756
	H443	H	0.124921	0.124719	0.267120
	H444	H	0.038678	0.217113	0.287996
	H445	H	0.023758	0.217275	0.274253
	H446	H	0.023725	0.283221	0.350494
	H447	H	0.038618	0.283528	0.336801
	H448	H	0.023728	0.533019	0.274364
	H449	H	0.038718	0.533022	0.288038
	H450	H	0.038714	-0.032370	0.336963
	H451	H	0.023815	-0.032554	0.350664
	H452	H	0.086343	-0.032550	0.336671
	H453	H	0.101239	-0.033063	0.350413
	H454	H	0.086233	0.532906	0.288004
	H455	H	0.101170	0.532998	0.274354
	Al456	Al	0.062449	-0.499847	0.437548
	Al457	Al	0.062485	-0.249789	0.437544
	Al458	Al	-0.000041	-0.250227	0.374948
	Al459	Al	-0.000029	-0.499945	0.374964
	O460	O	0.072637	-0.459191	0.449402
	O461	O	0.062485	-0.374842	0.429363
	O462	O	0.062476	-0.124682	0.445793
	O463	O	0.114931	-0.459188	0.488129
	O464	O	0.052372	-0.459393	0.449481
	O465	O	0.010098	-0.459062	0.488135
	O466	O	0.052377	-0.291141	0.449472
	O467	O	0.052393	-0.209336	0.425604
	O468	O	0.010109	-0.209298	0.386895
	O469	O	0.072589	-0.290960	0.449465
	O470	O	0.072582	-0.208701	0.425655
	O471	O	0.114823	-0.208742	0.386929
	O472	O	0.010098	-0.290963	0.488146
	O473	O	0.052337	-0.041101	0.425722
	O474	O	0.010108	-0.040953	0.386922
	O475	O	0.114874	-0.040773	0.386937
	O476	O	0.072536	-0.040660	0.425599
	O477	O	0.114888	-0.290949	0.488094
	O478	O	-0.000001	-0.125021	0.491785
	O479	O	0.124901	-0.374882	0.383249
	C480	C	0.098004	-0.286110	0.472558
	C481	C	0.102313	-0.375296	0.476499
	C482	C	0.097944	-0.464441	0.472685
	C483	C	0.089526	-0.464558	0.464984
	C484	C	0.085270	-0.375259	0.460927
	C485	C	0.089577	-0.286026	0.464857
	C486	C	0.076204	-0.375121	0.452578
	C487	C	0.111359	-0.375168	0.484868
	C488	C	0.048777	-0.375261	0.452638
	C489	C	0.039737	-0.375112	0.461050
	C490	C	0.035468	-0.285886	0.465061
	C491	C	0.027065	-0.285997	0.472767
	C492	C	0.022695	-0.375058	0.476569
	C493	C	0.026963	-0.464188	0.472564
	C494	C	0.035370	-0.464117	0.464887
	C495	C	0.013664	-0.375234	0.484965
	C496	C	0.048804	-0.125218	0.422460
	C497	C	0.039791	-0.124870	0.413973
	C498	C	0.035460	-0.035838	0.410065
	C499	C	0.027060	-0.035816	0.402343
	C500	C	0.022760	-0.124889	0.398425
	C501	C	0.027079	-0.213972	0.402333
	C502	C	0.035494	-0.214015	0.410049
	C503	C	0.013681	-0.125163	0.390067
	C504	C	0.076114	-0.124654	0.422422
	C505	C	0.085149	-0.124787	0.414021
	C506	C	0.089501	-0.213937	0.410146
	C507	C	0.097929	-0.213766	0.402458
	C508	C	0.102228	-0.124805	0.398471
	C509	C	0.097881	-0.035703	0.402386
	C510	C	0.089455	-0.035674	0.410089
	C511	C	0.111266	-0.124718	0.390083
	H512	H	0.101152	-0.282793	0.399408
	H513	H	0.086261	-0.283009	0.413173
	H514	H	0.101254	-0.217092	0.475548
	H515	H	0.086339	-0.216920	0.461810
	H516	H	0.062582	-0.374926	0.420385
	H517	H	0.062586	-0.125294	0.454742
	H518	H	0.000070	-0.124730	0.482759
	H519	H	0.124876	-0.374927	0.392259
	H520	H	0.038694	-0.283024	0.413136
	H521	H	0.023824	-0.283144	0.399308
	H522	H	0.023879	-0.216781	0.475881
	H523	H	0.038767	-0.217068	0.462130
	H524	H	0.023804	0.033335	0.399340
	H525	H	0.038654	0.033067	0.413173
	H526	H	0.038594	-0.533343	0.461800
	H527	H	0.023681	-0.533421	0.475524
	H528	H	0.086239	-0.533668	0.462039
	H529	H	0.101139	-0.533600	0.475763
	H530	H	0.086224	0.033481	0.413134
	H531	H	0.101107	0.033326	0.399380
	Al532	Al	0.062424	0.000199	0.437577
	Al533	Al	0.062461	0.250087	0.437579
	Al534	Al	-0.000037	0.250082	0.375065
	Al535	Al	0.000010	0.000152	0.374978
	O536	O	0.072538	0.041369	0.449505
	O537	O	0.062499	0.125066	0.429325
	O538	O	0.062455	0.375193	0.445788
	O539	O	0.114874	0.041075	0.488162
	O540	O	0.052301	0.041068	0.449459
	O541	O	0.010051	0.041181	0.488135
	O542	O	0.052359	0.209036	0.449466
	O543	O	0.052363	0.290974	0.425589
	O544	O	0.010105	0.291160	0.386872
	O545	O	0.072621	0.209603	0.449431
	O546	O	0.072555	0.291321	0.425613
	O547	O	0.114827	0.290842	0.386927
	O548	O	0.010078	0.209502	0.488173
	O549	O	0.052397	0.459065	0.425580
	O550	O	0.010086	0.459175	0.386916
	O551	O	0.114839	0.458980	0.386949
	O552	O	0.072600	0.459244	0.425707
	O553	O	0.114907	0.209145	0.488079
	O554	O	-0.000063	0.375289	0.491825
	O555	O	0.124988	0.124966	0.383191
	C556	C	0.097977	0.214057	0.472512
	C557	C	0.102297	0.125045	0.476460
	C558	C	0.097982	0.036026	0.472546
	C559	C	0.089559	0.036005	0.464874
	C560	C	0.085245	0.125064	0.460925
	C561	C	0.089552	0.214131	0.464832
	C562	C	0.076147	0.125251	0.452654
	C563	C	0.111323	0.125065	0.484896
	C564	C	0.048720	0.125077	0.452621
	C565	C	0.039681	0.125193	0.460972
	C566	C	0.035365	0.214140	0.464932
	C567	C	0.026981	0.214332	0.472666
	C568	C	0.022665	0.125273	0.476577
	C569	C	0.026974	0.036225	0.472633
	C570	C	0.035361	0.036159	0.464901
	C571	C	0.013634	0.125476	0.484970
	C572	C	0.048819	0.374999	0.422368
	C573	C	0.039763	0.375070	0.414000
	C574	C	0.035421	0.463949	0.410082
	C575	C	0.027016	0.463960	0.402422
	C576	C	0.022699	0.375112	0.398482
	C577	C	0.027028	0.286138	0.402374
	C578	C	0.035441	0.286078	0.410056
	C579	C	0.013674	0.375204	0.390079
	C580	C	0.076183	0.375259	0.422488
	C581	C	0.085201	0.375067	0.414096
	C582	C	0.089507	0.286032	0.410171
	C583	C	0.097906	0.286031	0.402449
	C584	C	0.102225	0.374919	0.398500
	C585	C	0.097867	0.463877	0.402334
	C586	C	0.089481	0.463862	0.410071
	C587	C	0.111267	0.374739	0.390146
	H588	H	0.101173	0.217026	0.399437
	H589	H	0.086302	0.217053	0.413228
	H590	H	0.101199	0.283041	0.475574
	H591	H	0.086267	0.283138	0.461880
	H592	H	0.062643	0.125030	0.420333
	H593	H	0.062610	0.375048	0.454808
	H594	H	0.000016	0.375224	0.482859
	H595	H	0.124975	0.124999	0.392157
	H596	H	0.038728	0.217134	0.413019
	H597	H	0.023781	0.217342	0.399325
	H598	H	0.023746	0.283169	0.475695
	H599	H	0.038623	0.283416	0.461912
	H600	H	0.023767	0.532871	0.399388
	H601	H	0.038671	0.532819	0.413067
	H602	H	0.038596	-0.033056	0.461886
	H603	H	0.023705	-0.032747	0.475640
	H604	H	0.086292	-0.033224	0.461896
	H605	H	0.101235	-0.032803	0.475561
	H606	H	0.086227	0.532984	0.413043
	H607	H	0.101079	0.533039	0.399260
	Al608	Al	0.062500	-0.500058	0.562478
	Al609	Al	0.062497	-0.250091	0.562498
	Al610	Al	0.000012	-0.250057	0.499972
	Al611	Al	-0.000058	-0.500114	0.500102
	O612	O	0.072591	-0.459046	0.574423
	O613	O	0.062499	-0.375115	0.554280
	O614	O	0.062408	-0.124954	0.570682
	O615	O	0.114900	-0.458931	0.613084
	O616	O	0.052394	-0.459613	0.574470
	O617	O	0.010094	-0.459108	0.613085
	O618	O	0.052439	-0.291268	0.574520
	O619	O	0.052387	-0.209431	0.550569
	O620	O	0.010102	-0.208629	0.511865
	O621	O	0.072617	-0.290872	0.574357
	O622	O	0.072580	-0.208928	0.550545
	O623	O	0.114912	-0.209247	0.511990
	O624	O	0.010090	-0.290709	0.613100
	O625	O	0.052384	-0.040938	0.550530
	O626	O	0.010075	-0.040580	0.511981
	O627	O	0.114890	-0.041133	0.511951
	O628	O	0.072573	-0.040776	0.550641
	O629	O	0.114879	-0.290861	0.613076
	O630	O	-0.000004	-0.124923	0.616841
	O631	O	0.125039	-0.374876	0.508226
	C632	C	0.097986	-0.285853	0.597499
	C633	C	0.102264	-0.374864	0.601521
	C634	C	0.097906	-0.463882	0.597664
	C635	C	0.089485	-0.464108	0.589989
	C636	C	0.085205	-0.375013	0.585982
	C637	C	0.089554	-0.285946	0.589823
	C638	C	0.076187	-0.375000	0.577600
	C639	C	0.111295	-0.374847	0.609894
	C640	C	0.048825	-0.375373	0.577644
	C641	C	0.039792	-0.374991	0.586046
	C642	C	0.035483	-0.285856	0.589988
	C643	C	0.027048	-0.285956	0.597653
	C644	C	0.022694	-0.375148	0.601512
	C645	C	0.027011	-0.464405	0.597608
	C646	C	0.035444	-0.464104	0.589947
	C647	C	0.013659	-0.374891	0.609872
	C648	C	0.048828	-0.125283	0.547351
	C649	C	0.039737	-0.125019	0.539062
	C650	C	0.035421	-0.035862	0.535213
	C651	C	0.026987	-0.035762	0.527537
	C652	C	0.022690	-0.124824	0.523547
	C653	C	0.027019	-0.213907	0.527383
	C654	C	0.035456	-0.213922	0.535066
	C655	C	0.013639	-0.124567	0.515113
	C656	C	0.076143	-0.124967	0.547412
	C657	C	0.085213	-0.124721	0.539051
	C658	C	0.089477	-0.214053	0.535017
	C659	C	0.097907	-0.214275	0.527323
	C660	C	0.102290	-0.125095	0.523511
	C661	C	0.097997	-0.035647	0.527468
	C662	C	0.089576	-0.035486	0.535185
	C663	C	0.111315	-0.125219	0.515165
	H664	H	0.101065	-0.283670	0.524191
	H665	H	0.086159	-0.283147	0.537949
	H666	H	0.101264	-0.216811	0.600445
	H667	H	0.086296	-0.216946	0.586729
	H668	H	0.062477	-0.374870	0.545339
	H669	H	0.062318	-0.124831	0.579706
	H670	H	0.000108	-0.125158	0.607837
	H671	H	0.125046	-0.374906	0.517225
	H672	H	0.038765	-0.283281	0.537968
	H673	H	0.023794	-0.282999	0.524281
	H674	H	0.023808	-0.216990	0.600670
	H675	H	0.038731	-0.217107	0.586960
	H676	H	0.023745	0.033436	0.524539
	H677	H	0.038684	0.033222	0.538229
	H678	H	0.038670	-0.533298	0.586898
	H679	H	0.023754	-0.533481	0.600544
	H680	H	0.086222	-0.533196	0.587048
	H681	H	0.101131	-0.532946	0.600747
	H682	H	0.086357	0.033679	0.538237
	H683	H	0.101275	0.033363	0.524443
	Al684	Al	0.062463	0.000221	0.562483
	Al685	Al	0.062495	0.250038	0.562496
	Al686	Al	-0.000073	0.250290	0.500069
	Al687	Al	-0.000043	-0.000258	0.500078
	O688	O	0.072568	0.040732	0.574426
	O689	O	0.062451	0.124782	0.554221
	O690	O	0.062511	0.374801	0.570709
	O691	O	0.114945	0.040927	0.613005
	O692	O	0.052384	0.041047	0.574408
	O693	O	0.010107	0.041099	0.613121
	O694	O	0.052396	0.209167	0.574412
	O695	O	0.052422	0.291046	0.550521
	O696	O	0.010035	0.291330	0.511965
	O697	O	0.072582	0.208872	0.574427
	O698	O	0.072628	0.290860	0.550599
	O699	O	0.114861	0.291260	0.511868
	O700	O	0.010093	0.209609	0.613104
	O701	O	0.052383	0.459172	0.550621
	O702	O	0.010084	0.459576	0.511968
	O703	O	0.114900	0.459098	0.511966
	O704	O	0.072623	0.459021	0.550614
	O705	O	0.114897	0.209053	0.613027
	O706	O	-0.000030	0.375322	0.616918
	O707	O	0.124977	0.125333	0.508214
	C708	C	0.097965	0.213991	0.597555
	C709	C	0.102278	0.124973	0.601489
	C710	C	0.097934	0.035847	0.597637
	C711	C	0.089496	0.035817	0.589963
	C712	C	0.085184	0.124818	0.586006
	C713	C	0.089525	0.213930	0.589882
	C714	C	0.076156	0.124831	0.577595
	C715	C	0.111340	0.124930	0.609832
	C716	C	0.048829	0.125248	0.577614
	C717	C	0.039787	0.125239	0.586027
	C718	C	0.035467	0.214269	0.589944
	C719	C	0.027041	0.214318	0.597631
	C720	C	0.022712	0.125318	0.601546
	C721	C	0.027014	0.036183	0.597613
	C722	C	0.035450	0.036188	0.589915
	C723	C	0.013696	0.125444	0.609936
	C724	C	0.048842	0.375139	0.547364
	C725	C	0.039765	0.375286	0.539022
	C726	C	0.035400	0.464453	0.535144
	C727	C	0.026988	0.464591	0.527490
	C728	C	0.022685	0.375422	0.523504
	C729	C	0.027075	0.286246	0.527340
	C730	C	0.035485	0.286215	0.534987
	C731	C	0.013620	0.375250	0.515183
	C732	C	0.076192	0.374821	0.547391
	C733	C	0.085197	0.374826	0.539000
	C734	C	0.089482	0.285778	0.535027
	C735	C	0.097895	0.285994	0.527320
	C736	C	0.102245	0.375032	0.523453
	C737	C	0.097961	0.463959	0.527459
	C738	C	0.089549	0.463806	0.535154
	C739	C	0.111308	0.375301	0.515099
	H740	H	0.101121	0.217323	0.524273
	H741	H	0.086221	0.216682	0.538013
	H742	H	0.101260	0.283044	0.600514
	H743	H	0.086314	0.283035	0.586822
	H744	H	0.062471	0.124926	0.545269
	H745	H	0.062404	0.374977	0.579646
	H746	H	-0.000037	0.375050	0.607937
	H747	H	0.124947	0.125618	0.517200
	H748	H	0.038833	0.217192	0.537893
	H749	H	0.023844	0.217228	0.524297
	H750	H	0.023823	0.283636	0.600645
	H751	H	0.038746	0.283392	0.586964
	H752	H	0.023674	0.533359	0.524579
	H753	H	0.038657	0.533378	0.538179
	H754	H	0.038717	-0.032530	0.586922
	H755	H	0.023759	-0.032760	0.600625
	H756	H	0.086255	-0.033292	0.586952
	H757	H	0.101179	-0.033117	0.600643
	H758	H	0.086336	0.532728	0.538237
	H759	H	0.101252	0.532962	0.524538
	Al760	Al	0.062532	-0.500000	0.687559
	Al761	Al	0.062547	-0.250111	0.687590
	Al762	Al	-0.000010	-0.249955	0.625027
	Al763	Al	0.000002	-0.500031	0.625055
	O764	O	0.072666	-0.459202	0.699476
	O765	O	0.062568	-0.375051	0.679368
	O766	O	0.062508	-0.124777	0.695856
	O767	O	0.114884	-0.458928	0.738200
	O768	O	0.052412	-0.459504	0.699493
	O769	O	0.010126	-0.459573	0.738162
	O770	O	0.052466	-0.291234	0.699459
	O771	O	0.052421	-0.209118	0.675624
	O772	O	0.010142	-0.208723	0.636881
	O773	O	0.072617	-0.291104	0.699521
	O774	O	0.072619	-0.209297	0.675690
	O775	O	0.114921	-0.209062	0.636967
	O776	O	0.010145	-0.291255	0.738169
	O777	O	0.052363	-0.040927	0.675723
	O778	O	0.010137	-0.040450	0.636927
	O779	O	0.114885	-0.040868	0.636864
	O780	O	0.072586	-0.041084	0.675670
	O781	O	0.114913	-0.290861	0.738185
	O782	O	0.000069	-0.125136	0.741896
	O783	O	0.125040	-0.375106	0.633216
	C784	C	0.098016	-0.286054	0.722606
	C785	C	0.102304	-0.375075	0.726601
	C786	C	0.097973	-0.464154	0.722755
	C787	C	0.089568	-0.463981	0.715038
	C788	C	0.085275	-0.374979	0.711043
	C789	C	0.089599	-0.285943	0.714926
	C790	C	0.076213	-0.375154	0.702698
	C791	C	0.111355	-0.374836	0.734962
	C792	C	0.048868	-0.375269	0.702635
	C793	C	0.039797	-0.375314	0.711009
	C794	C	0.035442	-0.286018	0.714849
	C795	C	0.027016	-0.285945	0.722522
	C796	C	0.022750	-0.375337	0.726537
	C797	C	0.027088	-0.464495	0.722669
	C798	C	0.035524	-0.464536	0.714998
	C799	C	0.013690	-0.375575	0.734926
	C800	C	0.048821	-0.125153	0.672467
	C801	C	0.039762	-0.124953	0.664096
	C802	C	0.035427	-0.035878	0.660201
	C803	C	0.027028	-0.035718	0.652463
	C804	C	0.022752	-0.124875	0.648485
	C805	C	0.027078	-0.214103	0.652358
	C806	C	0.035498	-0.214095	0.660086
	C807	C	0.013708	-0.124924	0.640069
	C808	C	0.076151	-0.125253	0.672438
	C809	C	0.085207	-0.125126	0.664027
	C810	C	0.089515	-0.214052	0.660069
	C811	C	0.097937	-0.214009	0.652381
	C812	C	0.102261	-0.125135	0.648487
	C813	C	0.097948	-0.036326	0.652403
	C814	C	0.089523	-0.036254	0.660103
	C815	C	0.111350	-0.124942	0.640144
	H816	H	0.101214	-0.282762	0.649394
	H817	H	0.086270	-0.283239	0.663039
	H818	H	0.101313	-0.217047	0.725546
	H819	H	0.086374	-0.216868	0.711880
	H820	H	0.062742	-0.374827	0.670376
	H821	H	0.062497	-0.125101	0.704828
	H822	H	-0.000076	-0.124957	0.732892
	H823	H	0.125134	-0.375540	0.642230
	H824	H	0.038776	-0.283374	0.663021
	H825	H	0.023857	-0.283138	0.649263
	H826	H	0.023688	-0.216787	0.725433
	H827	H	0.038648	-0.216711	0.711777
	H828	H	0.023782	0.033602	0.649466
	H829	H	0.038643	0.033609	0.663230
	H830	H	0.038821	-0.533599	0.712049
	H831	H	0.023837	-0.533644	0.725701
	H832	H	0.086288	-0.532970	0.712066
	H833	H	0.101191	-0.533312	0.725813
	H834	H	0.086284	0.032681	0.663095
	H835	H	0.101197	0.032639	0.649431
	Al836	Al	0.062495	0.000159	0.687616
	Al837	Al	0.062487	0.250063	0.687552
	Al838	Al	0.000016	0.250220	0.625075
	Al839	Al	-0.000020	0.000036	0.625038
	O840	O	0.072653	0.040967	0.699518
	O841	O	0.062476	0.125067	0.679349
	O842	O	0.062523	0.375067	0.695816
	O843	O	0.114913	0.040984	0.738129
	O844	O	0.052407	0.041058	0.699518
	O845	O	0.010121	0.041278	0.738181
	O846	O	0.052382	0.209216	0.699446
	O847	O	0.052408	0.291054	0.675651
	O848	O	0.010153	0.291028	0.636963
	O849	O	0.072610	0.209004	0.699536
	O850	O	0.072597	0.290723	0.675640
	O851	O	0.114897	0.290878	0.636887
	O852	O	0.010061	0.209482	0.738140
	O853	O	0.052450	0.459119	0.675626
	O854	O	0.010111	0.459149	0.637033
	O855	O	0.114858	0.459080	0.636880
	O856	O	0.072671	0.458826	0.675643
	O857	O	0.114892	0.209027	0.738196
	O858	O	-0.000012	0.374725	0.741955
	O859	O	0.124996	0.124820	0.633150
	C860	C	0.098012	0.213850	0.722632
	C861	C	0.102310	0.124870	0.726549
	C862	C	0.097993	0.035987	0.722622
	C863	C	0.089584	0.036060	0.714931
	C864	C	0.085290	0.125135	0.711016
	C865	C	0.089604	0.213978	0.714938
	C866	C	0.076213	0.125131	0.702704
	C867	C	0.111337	0.125066	0.734943
	C868	C	0.048824	0.125230	0.702702
	C869	C	0.039747	0.125238	0.711021
	C870	C	0.035415	0.214340	0.714918
	C871	C	0.026992	0.214584	0.722587
	C872	C	0.022686	0.125696	0.726557
	C873	C	0.027028	0.036535	0.722697
	C874	C	0.035472	0.036311	0.715042
	C875	C	0.013642	0.125348	0.734952
	C876	C	0.048838	0.375010	0.672444
	C877	C	0.039824	0.375130	0.664045
	C878	C	0.035453	0.464102	0.660238
	C879	C	0.027033	0.464021	0.652571
	C880	C	0.022754	0.374986	0.648539
	C881	C	0.027129	0.285963	0.652367
	C882	C	0.035535	0.286064	0.660044
	C883	C	0.013678	0.375052	0.640210
	C884	C	0.076180	0.374743	0.672394
	C885	C	0.085245	0.374464	0.664038
	C886	C	0.089559	0.285625	0.660073
	C887	C	0.097979	0.285732	0.652384
	C888	C	0.102280	0.374693	0.648457
	C889	C	0.097969	0.463694	0.652396
	C890	C	0.089560	0.463472	0.660099
	C891	C	0.111308	0.374907	0.640079
	H892	H	0.101213	0.216694	0.649340
	H893	H	0.086282	0.216395	0.663023
	H894	H	0.101266	0.282815	0.725637
	H895	H	0.086349	0.283226	0.711963
	H896	H	0.062380	0.124955	0.670349
	H897	H	0.062443	0.374950	0.704720
	H898	H	-0.000131	0.374945	0.732960
	H899	H	0.124955	0.124756	0.642144
	H900	H	0.038807	0.217090	0.663019
	H901	H	0.023865	0.217101	0.649427
	H902	H	0.023755	0.283597	0.725582
	H903	H	0.038676	0.283193	0.711921
	H904	H	0.023704	0.533018	0.649695
	H905	H	0.038685	0.533144	0.663313
	H906	H	0.038747	-0.032931	0.712108
	H907	H	0.023823	-0.032392	0.725808
	H908	H	0.086318	-0.032765	0.711953
	H909	H	0.101242	-0.032780	0.725633
	H910	H	0.086287	0.532330	0.663042
	H911	H	0.101221	0.532756	0.649339
	Al912	Al	0.062516	-0.500021	0.812611
	Al913	Al	0.062582	-0.250179	0.812689
	Al914	Al	0.000058	-0.250318	0.750151
	Al915	Al	0.000005	-0.500126	0.750109
	O916	O	0.072644	-0.459252	0.824577
	O917	O	0.062494	-0.375024	0.804426
	O918	O	0.062584	-0.125048	0.820874
	O919	O	0.114888	-0.459262	0.863236
	O920	O	0.052417	-0.458838	0.824553
	O921	O	0.010109	-0.459013	0.863207
	O922	O	0.052441	-0.290438	0.824606
	O923	O	0.052472	-0.209179	0.800769
	O924	O	0.010215	-0.208928	0.761992
	O925	O	0.072659	-0.291132	0.824588
	O926	O	0.072618	-0.209213	0.800685
	O927	O	0.114881	-0.209300	0.761983
	O928	O	0.010111	-0.290764	0.863181
	O929	O	0.052424	-0.040955	0.800866
	O930	O	0.010153	-0.040672	0.762084
	O931	O	0.114886	-0.041013	0.761961
	O932	O	0.072687	-0.041180	0.800742
	O933	O	0.114902	-0.291293	0.863203
	O934	O	0.000023	-0.125326	0.866895
	O935	O	0.124996	-0.374889	0.758297
	C936	C	0.097936	-0.286382	0.847777
	C937	C	0.102280	-0.375308	0.851678
	C938	C	0.097962	-0.464176	0.847770
	C939	C	0.089550	-0.464251	0.840086
	C940	C	0.085232	-0.375354	0.836156
	C941	C	0.089529	-0.286430	0.840100
	C942	C	0.076218	-0.375282	0.827777
	C943	C	0.111320	-0.375400	0.860043
	C944	C	0.048841	-0.374669	0.827746
	C945	C	0.039774	-0.375095	0.836091
	C946	C	0.035417	-0.285946	0.839931
	C947	C	0.026996	-0.285921	0.847613
	C948	C	0.022724	-0.374952	0.851608
	C949	C	0.027087	-0.464060	0.847749
	C950	C	0.035506	-0.464232	0.840071
	C951	C	0.013660	-0.375020	0.859993
	C952	C	0.048896	-0.124956	0.797611
	C953	C	0.039803	-0.124802	0.789280
	C954	C	0.035521	-0.035748	0.785305
	C955	C	0.027114	-0.035683	0.777587
	C956	C	0.022779	-0.124792	0.773662
	C957	C	0.027108	-0.213807	0.777538
	C958	C	0.035523	-0.213872	0.785239
	C959	C	0.013750	-0.124741	0.765266
	C960	C	0.076216	-0.125195	0.797504
	C961	C	0.085241	-0.125323	0.789091
	C962	C	0.089564	-0.214254	0.785157
	C963	C	0.097964	-0.214404	0.777447
	C964	C	0.102285	-0.125485	0.773552
	C965	C	0.097962	-0.036390	0.777458
	C966	C	0.089562	-0.036475	0.785173
	C967	C	0.111322	-0.124972	0.765172
	H968	H	0.101202	-0.283347	0.774424
	H969	H	0.086339	-0.283306	0.788217
	H970	H	0.101165	-0.217329	0.850809
	H971	H	0.086260	-0.217681	0.837068
	H972	H	0.062421	-0.374318	0.795394
	H973	H	0.062505	-0.125452	0.829842
	H974	H	0.000018	-0.125206	0.857914
	H975	H	0.125033	-0.374656	0.767245
	H976	H	0.038840	-0.282977	0.788146
	H977	H	0.023890	-0.283150	0.774426
	H978	H	0.023705	-0.216940	0.850564
	H979	H	0.038625	-0.216938	0.836862
	H980	H	0.023885	0.033445	0.774510
	H981	H	0.038794	0.033429	0.788225
	H982	H	0.038788	-0.533113	0.837094
	H983	H	0.023867	-0.533234	0.850787
	H984	H	0.086311	-0.532961	0.837041
	H985	H	0.101236	-0.533136	0.850776
	H986	H	0.086327	0.032331	0.788205
	H987	H	0.101217	0.032344	0.774430
	Al988	Al	0.062581	0.000165	0.812685
	Al989	Al	0.062528	0.249842	0.812632
	Al990	Al	-0.000024	0.249799	0.750122
	Al991	Al	0.000085	-0.000163	0.750154
	O992	O	0.072651	0.041358	0.824626
	O993	O	0.062618	0.124872	0.804451
	O994	O	0.062535	0.374914	0.820840
	O995	O	0.114927	0.041404	0.863267
	O996	O	0.052459	0.041088	0.824565
	O997	O	0.010120	0.041097	0.863176
	O998	O	0.052402	0.209252	0.824523
	O999	O	0.052403	0.290315	0.800740
	O1000	O	0.010113	0.290573	0.762065
	O1001	O	0.072665	0.209674	0.824559
	O1002	O	0.072597	0.290890	0.800679
	O1003	O	0.114872	0.290778	0.762028
	O1004	O	0.010132	0.209433	0.863138
	O1005	O	0.052410	0.458869	0.800753
	O1006	O	0.010102	0.458856	0.762032
	O1007	O	0.114871	0.458979	0.761979
	O1008	O	0.072614	0.459202	0.800687
	O1009	O	0.114911	0.209339	0.863259
	O1010	O	-0.000046	0.375083	0.866859
	O1011	O	0.124935	0.124873	0.758272
	C1012	C	0.097980	0.214575	0.847849
	C1013	C	0.102287	0.125525	0.851740
	C1014	C	0.097995	0.036584	0.847805
	C1015	C	0.089561	0.036565	0.840102
	C1016	C	0.085241	0.125424	0.836209
	C1017	C	0.089551	0.214527	0.840143
	C1018	C	0.076233	0.125770	0.827804
	C1019	C	0.111328	0.125405	0.860077
	C1020	C	0.048844	0.125005	0.827695
	C1021	C	0.039803	0.125031	0.836065
	C1022	C	0.035484	0.214340	0.839938
	C1023	C	0.027072	0.214461	0.847628
	C1024	C	0.022760	0.125309	0.851601
	C1025	C	0.027077	0.036100	0.847700
	C1026	C	0.035503	0.035905	0.840029
	C1027	C	0.013704	0.125155	0.859991
	C1028	C	0.048841	0.374705	0.797574
	C1029	C	0.039773	0.374719	0.789202
	C1030	C	0.035463	0.463832	0.785250
	C1031	C	0.027049	0.463821	0.777547
	C1032	C	0.022751	0.374661	0.773631
	C1033	C	0.027074	0.285522	0.777567
	C1034	C	0.035486	0.285424	0.785252
	C1035	C	0.013663	0.374605	0.765264
	C1036	C	0.076161	0.375079	0.797490
	C1037	C	0.085220	0.375141	0.789116
	C1038	C	0.089569	0.286194	0.785239
	C1039	C	0.098014	0.286194	0.777554
	C1040	C	0.102296	0.375187	0.773597
	C1041	C	0.097959	0.464226	0.777489
	C1042	C	0.089526	0.464137	0.785168
	C1043	C	0.111309	0.374807	0.765204
	H1044	H	0.101278	0.217211	0.774562
	H1045	H	0.086329	0.217204	0.788298
	H1046	H	0.101219	0.283889	0.850852
	H1047	H	0.086324	0.283740	0.837101
	H1048	H	0.062711	0.124617	0.795483
	H1049	H	0.062593	0.374970	0.829794
	H1050	H	-0.000098	0.375045	0.857843
	H1051	H	0.124738	0.125322	0.767210
	H1052	H	0.038756	0.216519	0.788249
	H1053	H	0.023808	0.216521	0.774583
	H1054	H	0.023836	0.283518	0.850644
	H1055	H	0.038737	0.283321	0.836881
	H1056	H	0.023776	0.532928	0.774553
	H1057	H	0.038721	0.532807	0.788275
	H1058	H	0.038743	-0.033493	0.837032
	H1059	H	0.023826	-0.033044	0.850773
	H1060	H	0.086363	-0.032752	0.837040
	H1061	H	0.101267	-0.032741	0.850773
	H1062	H	0.086275	0.533169	0.788169
	H1063	H	0.101193	0.533190	0.774423
	Al1064	Al	0.062499	-0.500258	0.937626
	Al1065	Al	0.062491	-0.250060	0.937672
	Al1066	Al	-0.000028	-0.250206	0.875121
	Al1067	Al	-0.000039	-0.500045	0.875118
	O1068	O	0.072633	-0.459239	0.949525
	O1069	O	0.062505	-0.374857	0.929484
	O1070	O	0.062532	-0.125014	0.945774
	O1071	O	0.114968	-0.458981	0.988059
	O1072	O	0.052357	-0.458917	0.949533
	O1073	O	0.010083	-0.459159	0.988164
	O1074	O	0.052327	-0.290790	0.949526
	O1075	O	0.052396	-0.209379	0.925676
	O1076	O	0.010112	-0.209467	0.887053
	O1077	O	0.072526	-0.291118	0.949693
	O1078	O	0.072605	-0.209235	0.925751
	O1079	O	0.114845	-0.209009	0.887030
	O1080	O	0.010063	-0.290879	0.988164
	O1081	O	0.052400	-0.041280	0.925636
	O1082	O	0.010104	-0.041277	0.887045
	O1083	O	0.114928	-0.040750	0.887093
	O1084	O	0.072563	-0.040839	0.925645
	O1085	O	0.114927	-0.290745	0.988130
	O1086	O	0.000028	-0.125057	0.991902
	O1087	O	0.124983	-0.374830	0.883359
	C1088	C	0.097938	-0.285754	0.972800
	C1089	C	0.102298	-0.374737	0.976606
	C1090	C	0.098022	-0.463799	0.972634
	C1091	C	0.089593	-0.463920	0.964963
	C1092	C	0.085239	-0.375067	0.961097
	C1093	C	0.089491	-0.286100	0.965141
	C1094	C	0.076174	-0.375243	0.952785
	C1095	C	0.111376	-0.374984	0.984885
	C1096	C	0.048785	-0.374929	0.952682
	C1097	C	0.039731	-0.374997	0.961041
	C1098	C	0.035431	-0.285788	0.965023
	C1099	C	0.027030	-0.286032	0.972702
	C1100	C	0.022700	-0.375221	0.976604
	C1101	C	0.027017	-0.464414	0.972655
	C1102	C	0.035434	-0.464270	0.964969
	C1103	C	0.013646	-0.375090	0.984960
	C1104	C	0.048801	-0.125561	0.922525
	C1105	C	0.039725	-0.125486	0.914207
	C1106	C	0.035401	-0.036278	0.910306
	C1107	C	0.026976	-0.036139	0.902637
	C1108	C	0.022676	-0.125201	0.898687
	C1109	C	0.027005	-0.214345	0.902545
	C1110	C	0.035429	-0.214558	0.910214
	C1111	C	0.013650	-0.125084	0.890244
	C1112	C	0.076178	-0.124844	0.922499
	C1113	C	0.085206	-0.124914	0.914145
	C1114	C	0.089524	-0.213775	0.910179
	C1115	C	0.097931	-0.213725	0.902502
	C1116	C	0.102291	-0.124781	0.898631
	C1117	C	0.097953	-0.035810	0.902539
	C1118	C	0.089539	-0.035820	0.910227
	C1119	C	0.111334	-0.124964	0.890260
	H1120	H	0.101177	-0.282520	0.899446
	H1121	H	0.086234	-0.282820	0.913144
	H1122	H	0.101182	-0.216813	0.975807
	H1123	H	0.086194	-0.217167	0.962262
	H1124	H	0.062474	-0.375638	0.920511
	H1125	H	0.062603	-0.124396	0.954799
	H1126	H	0.000135	-0.125478	0.982838
	H1127	H	0.124940	-0.375145	0.892337
	H1128	H	0.038729	-0.283642	0.913137
	H1129	H	0.023786	-0.283374	0.899427
	H1130	H	0.023804	-0.216749	0.975767
	H1131	H	0.038714	-0.216611	0.962049
	H1132	H	0.023743	0.032661	0.899587
	H1133	H	0.038655	0.032666	0.913336
	H1134	H	0.038699	-0.533288	0.961936
	H1135	H	0.023759	-0.533328	0.975658
	H1136	H	0.086392	-0.533113	0.961930
	H1137	H	0.101322	-0.532951	0.975525
	H1138	H	0.086286	0.033165	0.913237
	H1139	H	0.101227	0.032886	0.899516
	Al1140	Al	0.062467	-0.000137	0.937551
	Al1141	Al	0.062536	0.249851	0.937608
	Al1142	Al	0.000011	0.249732	0.875097
	Al1143	Al	0.000035	-0.000278	0.875121
	O1144	O	0.072580	0.040896	0.949522
	O1145	O	0.062495	0.125088	0.929390
	O1146	O	0.062482	0.374883	0.945850
	O1147	O	0.115005	0.040846	0.987984
	O1148	O	0.052361	0.040831	0.949459
	O1149	O	0.010119	0.040828	0.988144
	O1150	O	0.052394	0.209094	0.949502
	O1151	O	0.052420	0.291336	0.925671
	O1152	O	0.010070	0.291003	0.887089
	O1153	O	0.072615	0.208889	0.949554
	O1154	O	0.072614	0.290981	0.925670
	O1155	O	0.114925	0.290957	0.887117
	O1156	O	0.010116	0.209042	0.988165
	O1157	O	0.052412	0.459421	0.925673
	O1158	O	0.010029	0.459379	0.887100
	O1159	O	0.114925	0.459105	0.887128
	O1160	O	0.072562	0.459074	0.925636
	O1161	O	0.114914	0.208986	0.988163
	O1162	O	0.000020	0.374836	0.991874
	O1163	O	0.125051	0.125293	0.883434
	C1164	C	0.097912	0.213894	0.972778
	C1165	C	0.102291	0.124830	0.976594
	C1166	C	0.098026	0.035649	0.972596
	C1167	C	0.089580	0.035628	0.964944
	C1168	C	0.085205	0.124643	0.961121
	C1169	C	0.089481	0.213869	0.965121
	C1170	C	0.076153	0.124692	0.952734
	C1171	C	0.111379	0.124995	0.984917
	C1172	C	0.048797	0.124900	0.952632
	C1173	C	0.039766	0.125023	0.961015
	C1174	C	0.035463	0.214291	0.964954
	C1175	C	0.027056	0.214139	0.972670
	C1176	C	0.022720	0.124992	0.976548
	C1177	C	0.027036	0.035801	0.972623
	C1178	C	0.035441	0.035669	0.964919
	C1179	C	0.013678	0.124902	0.984952
	C1180	C	0.048826	0.375375	0.922488
	C1181	C	0.039772	0.375447	0.914119
	C1182	C	0.035446	0.464462	0.910201
	C1183	C	0.027003	0.464469	0.902534
	C1184	C	0.022670	0.375398	0.898643
	C1185	C	0.026988	0.286390	0.902572
	C1186	C	0.035414	0.286368	0.910249
	C1187	C	0.013610	0.375299	0.890288
	C1188	C	0.076153	0.375022	0.922433
	C1189	C	0.085211	0.375226	0.914076
	C1190	C	0.089541	0.286188	0.910158
	C1191	C	0.097984	0.286089	0.902525
	C1192	C	0.102317	0.375175	0.898660
	C1193	C	0.097986	0.464193	0.902551
	C1194	C	0.089555	0.464155	0.910190
	C1195	C	0.111356	0.375044	0.890298
	H1196	H	0.101221	0.217109	0.899484
	H1197	H	0.086259	0.217214	0.913082
	H1198	H	0.101105	0.283234	0.975844
	H1199	H	0.086200	0.283054	0.962196
	H1200	H	0.062469	0.124664	0.920336
	H1201	H	0.062467	0.375104	0.954813
	H1202	H	0.000053	0.374737	0.982942
	H1203	H	0.125130	0.124928	0.892463
	H1204	H	0.038658	0.216957	0.913204
	H1205	H	0.023680	0.217408	0.899683
	H1206	H	0.023797	0.283400	0.975692
	H1207	H	0.038718	0.283612	0.961941
	H1208	H	0.023723	0.533539	0.899605
	H1209	H	0.038710	0.533393	0.913181
	H1210	H	0.038675	-0.033779	0.961887
	H1211	H	0.023769	-0.033377	0.975588
	H1212	H	0.086373	-0.033463	0.961850
	H1213	H	0.101312	-0.033475	0.975548
	H1214	H	0.086274	0.533181	0.913170
	H1215	H	0.101222	0.533311	0.899520
	Al1216	Al	0.187519	-0.500235	0.062514
	Al1217	Al	0.187522	-0.250134	0.062551
	Al1218	Al	0.125078	-0.250072	0.000024
	Al1219	Al	0.125025	-0.500088	0.000022
	O1220	O	0.197636	-0.459129	0.074411
	O1221	O	0.187522	-0.374971	0.054317
	O1222	O	0.187543	-0.124964	0.070670
	O1223	O	0.239942	-0.459082	0.113015
	O1224	O	0.177444	-0.459172	0.074475
	O1225	O	0.135129	-0.459113	0.112998
	O1226	O	0.177425	-0.290828	0.074434
	O1227	O	0.177409	-0.208962	0.050629
	O1228	O	0.135168	-0.208667	0.011980
	O1229	O	0.197650	-0.291022	0.074432
	O1230	O	0.197658	-0.209379	0.050642
	O1231	O	0.239922	-0.209296	0.011981
	O1232	O	0.135095	-0.290861	0.113008
	O1233	O	0.177443	-0.040929	0.050636
	O1234	O	0.135148	-0.040562	0.011952
	O1235	O	0.239966	-0.040890	0.012048
	O1236	O	0.197626	-0.041049	0.050559
	O1237	O	0.239905	-0.290723	0.113090
	O1238	O	0.125037	-0.125058	0.116721
	O1239	O	0.250068	-0.375002	0.008300
	C1240	C	0.222961	-0.285849	0.097653
	C1241	C	0.227301	-0.374957	0.101514
	C1242	C	0.223048	-0.463929	0.097493
	C1243	C	0.214622	-0.463976	0.089822
	C1244	C	0.210254	-0.374930	0.086002
	C1245	C	0.214539	-0.285766	0.089959
	C1246	C	0.201209	-0.375133	0.077613
	C1247	C	0.236333	-0.374886	0.109872
	C1248	C	0.173864	-0.375194	0.077609
	C1249	C	0.164814	-0.374705	0.086003
	C1250	C	0.160429	-0.285464	0.089766
	C1251	C	0.151998	-0.285523	0.097455
	C1252	C	0.147738	-0.374874	0.101459
	C1253	C	0.152118	-0.464084	0.097697
	C1254	C	0.160558	-0.463916	0.090011
	C1255	C	0.138690	-0.374990	0.109834
	C1256	C	0.173852	-0.124847	0.047411
	C1257	C	0.164823	-0.124718	0.039053
	C1258	C	0.160510	-0.035645	0.035177
	C1259	C	0.152097	-0.035728	0.027461
	C1260	C	0.147788	-0.124695	0.023491
	C1261	C	0.152110	-0.213804	0.027382
	C1262	C	0.160518	-0.213759	0.035089
	C1263	C	0.138736	-0.124624	0.015115
	C1264	C	0.201213	-0.125086	0.047415
	C1265	C	0.210276	-0.125346	0.039071
	C1266	C	0.214583	-0.214421	0.035123
	C1267	C	0.223011	-0.214311	0.027449
	C1268	C	0.227339	-0.125085	0.023576
	C1269	C	0.223021	-0.036142	0.027499
	C1270	C	0.214594	-0.036160	0.035183
	C1271	C	0.236386	-0.125021	0.015227
	H1272	H	0.226283	-0.283467	0.024486
	H1273	H	0.211320	-0.283527	0.038114
	H1274	H	0.226198	-0.216855	0.100728
	H1275	H	0.211257	-0.216744	0.086998
	H1276	H	0.187596	-0.375063	0.045334
	H1277	H	0.187579	-0.124891	0.079603
	H1278	H	0.125049	-0.125552	0.107746
	H1279	H	0.249897	-0.375222	0.017276
	H1280	H	0.163793	-0.282619	0.038022
	H1281	H	0.148891	-0.282944	0.024320
	H1282	H	0.148680	-0.216526	0.100351
	H1283	H	0.163623	-0.216211	0.086702
	H1284	H	0.148856	0.033138	0.024421
	H1285	H	0.163747	0.033148	0.038193
	H1286	H	0.163863	-0.533151	0.087119
	H1287	H	0.148915	-0.533211	0.100760
	H1288	H	0.211408	-0.532924	0.086752
	H1289	H	0.226341	-0.532877	0.100426
	H1290	H	0.211310	0.032825	0.038160
	H1291	H	0.226266	0.032598	0.024533
	Al1292	Al	0.187550	-0.000029	0.062514
	Al1293	Al	0.187553	0.249610	0.062536
	Al1294	Al	0.125035	0.249772	0.000036
	Al1295	Al	0.125019	-0.000064	0.000007
	O1296	O	0.197694	0.040775	0.074437
	O1297	O	0.187593	0.125022	0.054343
	O1298	O	0.187505	0.374892	0.070722
	O1299	O	0.239947	0.041330	0.113121
	O1300	O	0.177443	0.040624	0.074482
	O1301	O	0.135135	0.040755	0.113003
	O1302	O	0.177478	0.208592	0.074423
	O1303	O	0.177431	0.290669	0.050623
	O1304	O	0.135119	0.291026	0.011979
	O1305	O	0.197635	0.208986	0.074493
	O1306	O	0.197644	0.291454	0.050598
	O1307	O	0.239921	0.291347	0.011950
	O1308	O	0.135157	0.208822	0.113073
	O1309	O	0.177447	0.458861	0.050538
	O1310	O	0.135096	0.459080	0.012010
	O1311	O	0.239963	0.459612	0.011995
	O1312	O	0.197645	0.459524	0.050647
	O1313	O	0.239948	0.209508	0.113099
	O1314	O	0.125073	0.375047	0.116722
	O1315	O	0.250008	0.125108	0.008199
	C1316	C	0.222989	0.214295	0.097647
	C1317	C	0.227326	0.125201	0.101532
	C1318	C	0.223004	0.036152	0.097607
	C1319	C	0.214588	0.035879	0.089917
	C1320	C	0.210265	0.125044	0.086011
	C1321	C	0.214574	0.214185	0.089942
	C1322	C	0.201227	0.124825	0.077664
	C1323	C	0.236350	0.125343	0.109912
	C1324	C	0.173871	0.124600	0.077617
	C1325	C	0.164840	0.124806	0.085991
	C1326	C	0.160444	0.213945	0.089765
	C1327	C	0.152014	0.214382	0.097433
	C1328	C	0.147739	0.125439	0.101457
	C1329	C	0.152144	0.036473	0.097673
	C1330	C	0.160558	0.035997	0.090004
	C1331	C	0.138708	0.124982	0.109818
	C1332	C	0.173876	0.374840	0.047383
	C1333	C	0.164839	0.374874	0.038974
	C1334	C	0.160529	0.464148	0.035069
	C1335	C	0.152103	0.464162	0.027397
	C1336	C	0.147782	0.375034	0.023474
	C1337	C	0.152089	0.285691	0.027390
	C1338	C	0.160520	0.285689	0.035068
	C1339	C	0.138672	0.375072	0.015179
	C1340	C	0.201206	0.375467	0.047425
	C1341	C	0.210279	0.375601	0.039110
	C1342	C	0.214601	0.286430	0.035171
	C1343	C	0.223029	0.286224	0.027490
	C1344	C	0.227335	0.375436	0.023571
	C1345	C	0.223022	0.464688	0.027519
	C1346	C	0.214601	0.464583	0.035200
	C1347	C	0.236383	0.375628	0.015201
	H1348	H	0.226318	0.217265	0.024482
	H1349	H	0.211358	0.217339	0.038179
	H1350	H	0.226220	0.283256	0.100651
	H1351	H	0.211296	0.283457	0.086999
	H1352	H	0.187714	0.125062	0.045346
	H1353	H	0.187373	0.374581	0.079730
	H1354	H	0.125161	0.375133	0.107778
	H1355	H	0.249967	0.125194	0.017153
	H1356	H	0.163730	0.216265	0.038108
	H1357	H	0.148814	0.216466	0.024413
	H1358	H	0.148723	0.283150	0.100316
	H1359	H	0.163660	0.282777	0.086602
	H1360	H	0.148859	0.533329	0.024418
	H1361	H	0.163756	0.533187	0.038098
	H1362	H	0.163840	-0.033067	0.087069
	H1363	H	0.148895	-0.032371	0.100758
	H1364	H	0.211315	-0.033302	0.086922
	H1365	H	0.226278	-0.032880	0.100610
	H1366	H	0.211355	0.533581	0.038207
	H1367	H	0.226237	0.533893	0.024516
	Al1368	Al	0.187520	-0.499849	0.187499
	Al1369	Al	0.187486	-0.249855	0.187523
	Al1370	Al	0.125022	-0.250018	0.124974
	Al1371	Al	0.125031	-0.499847	0.124933
	O1372	O	0.197635	-0.459009	0.199422
	O1373	O	0.187490	-0.374910	0.179300
	O1374	O	0.187496	-0.124664	0.195727
	O1375	O	0.239892	-0.459032	0.238172
	O1376	O	0.177360	-0.459466	0.199317
	O1377	O	0.135082	-0.459234	0.237917
	O1378	O	0.177422	-0.291268	0.199447
	O1379	O	0.177339	-0.209372	0.175594
	O1380	O	0.135144	-0.209272	0.136887
	O1381	O	0.197619	-0.290960	0.199452
	O1382	O	0.197628	-0.208792	0.175632
	O1383	O	0.239901	-0.208419	0.136936
	O1384	O	0.135154	-0.290951	0.238028
	O1385	O	0.177437	-0.041062	0.175446
	O1386	O	0.135161	-0.041094	0.136849
	O1387	O	0.239857	-0.040750	0.136884
	O1388	O	0.197592	-0.040953	0.175592
	O1389	O	0.239891	-0.290833	0.238125
	O1390	O	0.124955	-0.125020	0.241695
	O1391	O	0.249979	-0.374922	0.133248
	C1392	C	0.222972	-0.286038	0.222602
	C1393	C	0.227266	-0.374943	0.226593
	C1394	C	0.222931	-0.463835	0.222701
	C1395	C	0.214550	-0.463761	0.214974
	C1396	C	0.210256	-0.374927	0.210997
	C1397	C	0.214587	-0.286031	0.214882
	C1398	C	0.201222	-0.374841	0.202603
	C1399	C	0.236313	-0.374847	0.234946
	C1400	C	0.173817	-0.375183	0.202562
	C1401	C	0.164803	-0.375366	0.210965
	C1402	C	0.160496	-0.286100	0.214890
	C1403	C	0.152088	-0.285867	0.222602
	C1404	C	0.147759	-0.375070	0.226503
	C1405	C	0.152039	-0.464231	0.222526
	C1406	C	0.160455	-0.464465	0.214831
	C1407	C	0.138712	-0.374867	0.234818
	C1408	C	0.173802	-0.125069	0.172320
	C1409	C	0.164782	-0.125111	0.163964
	C1410	C	0.160501	-0.036082	0.159986
	C1411	C	0.152095	-0.036205	0.152285
	C1412	C	0.147744	-0.125210	0.148428
	C1413	C	0.152017	-0.214342	0.152416
	C1414	C	0.160424	-0.214061	0.160116
	C1415	C	0.138718	-0.125208	0.140067
	C1416	C	0.201172	-0.124923	0.172398
	C1417	C	0.210233	-0.124788	0.164086
	C1418	C	0.214558	-0.213431	0.160146
	C1419	C	0.222980	-0.213177	0.152436
	C1420	C	0.227272	-0.124415	0.148506
	C1421	C	0.222969	-0.035682	0.152511
	C1422	C	0.214555	-0.035972	0.160214
	C1423	C	0.236319	-0.124495	0.140139
	H1424	H	0.226259	-0.282233	0.149424
	H1425	H	0.211319	-0.282393	0.163102
	H1426	H	0.226243	-0.217137	0.225571
	H1427	H	0.211362	-0.217085	0.211738
	H1428	H	0.187445	-0.374998	0.170297
	H1429	H	0.187476	-0.124827	0.204749
	H1430	H	0.124686	-0.125387	0.232713
	H1431	H	0.249867	-0.374676	0.142238
	H1432	H	0.163624	-0.283152	0.163242
	H1433	H	0.148734	-0.283600	0.149457
	H1434	H	0.148859	-0.216602	0.225604
	H1435	H	0.163744	-0.217107	0.211873
	H1436	H	0.148876	0.032829	0.149180
	H1437	H	0.163772	0.033053	0.162955
	H1438	H	0.163688	-0.533764	0.211771
	H1439	H	0.148763	-0.533276	0.225529
	H1440	H	0.211294	-0.532680	0.211947
	H1441	H	0.226187	-0.532794	0.225758
	H1442	H	0.211315	0.032993	0.163254
	H1443	H	0.226214	0.033421	0.149582
	Al1444	Al	0.187483	0.000341	0.187444
	Al1445	Al	0.187480	0.250161	0.187475
	Al1446	Al	0.125026	0.249969	0.124985
	Al1447	Al	0.125063	0.000143	0.124960
	O1448	O	0.197643	0.041029	0.199332
	O1449	O	0.187486	0.125317	0.179283
	O1450	O	0.187551	0.375296	0.195698
	O1451	O	0.239853	0.041346	0.238139
	O1452	O	0.177351	0.040902	0.199338
	O1453	O	0.135116	0.041245	0.238041
	O1454	O	0.177418	0.209056	0.199456
	O1455	O	0.177395	0.291291	0.175575
	O1456	O	0.135106	0.291498	0.136934
	O1457	O	0.197600	0.209071	0.199366
	O1458	O	0.197620	0.291095	0.175603
	O1459	O	0.239909	0.291065	0.136925
	O1460	O	0.135175	0.209232	0.238171
	O1461	O	0.177410	0.459325	0.175496
	O1462	O	0.135176	0.459762	0.136833
	O1463	O	0.239915	0.459368	0.136994
	O1464	O	0.197607	0.459379	0.175507
	O1465	O	0.239920	0.209592	0.238121
	O1466	O	0.124974	0.375049	0.241733
	O1467	O	0.250043	0.124588	0.133248
	C1468	C	0.222981	0.214316	0.222511
	C1469	C	0.227258	0.125566	0.226573
	C1470	C	0.222930	0.036582	0.222701
	C1471	C	0.214538	0.036670	0.214961
	C1472	C	0.210221	0.125471	0.210966
	C1473	C	0.214567	0.214442	0.214780
	C1474	C	0.201185	0.125264	0.202542
	C1475	C	0.236288	0.125583	0.234963
	C1476	C	0.173791	0.124992	0.202569
	C1477	C	0.164765	0.125033	0.210932
	C1478	C	0.160508	0.214043	0.214939
	C1479	C	0.152118	0.214163	0.222635
	C1480	C	0.147739	0.125289	0.226492
	C1481	C	0.151985	0.036458	0.222479
	C1482	C	0.160387	0.036358	0.214792
	C1483	C	0.138709	0.125224	0.234908
	C1484	C	0.173827	0.375252	0.172359
	C1485	C	0.164778	0.375075	0.163976
	C1486	C	0.160524	0.464322	0.159970
	C1487	C	0.152118	0.464332	0.152268
	C1488	C	0.147746	0.375291	0.148426
	C1489	C	0.152008	0.285979	0.152433
	C1490	C	0.160396	0.285960	0.160151
	C1491	C	0.138722	0.375540	0.140032
	C1492	C	0.201203	0.375281	0.172401
	C1493	C	0.210265	0.375036	0.164076
	C1494	C	0.214594	0.286001	0.160130
	C1495	C	0.223007	0.286102	0.152467
	C1496	C	0.227333	0.375303	0.148584
	C1497	C	0.222981	0.464333	0.152472
	C1498	C	0.214565	0.464348	0.160137
	C1499	C	0.236369	0.375178	0.140174
	H1500	H	0.226286	0.217531	0.149443
	H1501	H	0.211349	0.217043	0.163170
	H1502	H	0.226255	0.283232	0.225455
	H1503	H	0.211343	0.283421	0.211660
	H1504	H	0.187383	0.125354	0.170278
	H1505	H	0.187638	0.374930	0.204682
	H1506	H	0.125103	0.374421	0.232781
	H1507	H	0.250012	0.124225	0.142272
	H1508	H	0.163599	0.217021	0.163294
	H1509	H	0.148717	0.217159	0.149450
	H1510	H	0.148879	0.282974	0.225670
	H1511	H	0.163796	0.282813	0.211956
	H1512	H	0.148928	0.533504	0.149128
	H1513	H	0.163839	0.533232	0.162914
	H1514	H	0.163573	-0.032528	0.211687
	H1515	H	0.148683	-0.032374	0.225409
	H1516	H	0.211285	-0.032122	0.211958
	H1517	H	0.226140	-0.032463	0.225782
	H1518	H	0.211288	0.533029	0.163145
	H1519	H	0.226239	0.533255	0.149428
	Al1520	Al	0.187452	-0.499988	0.312481
	Al1521	Al	0.187493	-0.249948	0.312547
	Al1522	Al	0.125034	-0.250035	0.249966
	Al1523	Al	0.125008	-0.500131	0.249895
	O1524	O	0.197569	-0.459313	0.324423
	O1525	O	0.187406	-0.374883	0.304297
	O1526	O	0.187429	-0.124945	0.320661
	O1527	O	0.239894	-0.459036	0.363021
	O1528	O	0.177343	-0.459035	0.324383
	O1529	O	0.135039	-0.459254	0.363008
	O1530	O	0.177345	-0.290633	0.324406
	O1531	O	0.177375	-0.208887	0.300594
	O1532	O	0.135082	-0.208843	0.261928
	O1533	O	0.197541	-0.291090	0.324540
	O1534	O	0.197608	-0.209339	0.300608
	O1535	O	0.239907	-0.209155	0.261974
	O1536	O	0.135008	-0.291116	0.363012
	O1537	O	0.177405	-0.040822	0.300502
	O1538	O	0.135148	-0.040727	0.261828
	O1539	O	0.239850	-0.041055	0.261945
	O1540	O	0.197586	-0.041096	0.300547
	O1541	O	0.239847	-0.290797	0.363081
	O1542	O	0.124980	-0.124839	0.366843
	O1543	O	0.250012	-0.374988	0.258312
	C1544	C	0.222944	-0.286044	0.347514
	C1545	C	0.227272	-0.375174	0.351445
	C1546	C	0.222927	-0.464479	0.347571
	C1547	C	0.214503	-0.464392	0.339915
	C1548	C	0.210192	-0.375131	0.335967
	C1549	C	0.214516	-0.285831	0.339862
	C1550	C	0.201126	-0.375265	0.327647
	C1551	C	0.236305	-0.374981	0.359839
	C1552	C	0.173790	-0.374808	0.327626
	C1553	C	0.164741	-0.374845	0.336005
	C1554	C	0.160407	-0.285876	0.339933
	C1555	C	0.151984	-0.286092	0.347607
	C1556	C	0.147676	-0.375025	0.351502
	C1557	C	0.152033	-0.463868	0.347613
	C1558	C	0.160451	-0.463765	0.339953
	C1559	C	0.138612	-0.375023	0.359853
	C1560	C	0.173806	-0.124992	0.297368
	C1561	C	0.164759	-0.125001	0.288989
	C1562	C	0.160468	-0.036020	0.285049
	C1563	C	0.152043	-0.035964	0.277383
	C1564	C	0.147705	-0.124897	0.273489
	C1565	C	0.152016	-0.213930	0.277412
	C1566	C	0.160436	-0.213932	0.285088
	C1567	C	0.138689	-0.124832	0.265039
	C1568	C	0.201155	-0.125042	0.297390
	C1569	C	0.210214	-0.125439	0.289008
	C1570	C	0.214489	-0.214313	0.285017
	C1571	C	0.222908	-0.214309	0.277346
	C1572	C	0.227258	-0.125406	0.273507
	C1573	C	0.222979	-0.036454	0.277490
	C1574	C	0.214562	-0.036459	0.285153
	C1575	C	0.236291	-0.125163	0.265111
	H1576	H	0.226093	-0.283140	0.274225
	H1577	H	0.211175	-0.283325	0.287941
	H1578	H	0.226195	-0.217117	0.350519
	H1579	H	0.211241	-0.216801	0.336861
	H1580	H	0.187228	-0.374748	0.295319
	H1581	H	0.187264	-0.125238	0.329690
	H1582	H	0.124893	-0.124970	0.357836
	H1583	H	0.250047	-0.374581	0.267260
	H1584	H	0.163661	-0.282987	0.288129
	H1585	H	0.148826	-0.282755	0.274328
	H1586	H	0.148706	-0.217182	0.350605
	H1587	H	0.163671	-0.216911	0.336966
	H1588	H	0.148831	0.033135	0.274245
	H1589	H	0.163731	0.032933	0.288022
	H1590	H	0.163766	-0.532430	0.336997
	H1591	H	0.148806	-0.533020	0.350622
	H1592	H	0.211206	-0.533383	0.336977
	H1593	H	0.226170	-0.533431	0.350616
	H1594	H	0.211343	0.032464	0.288193
	H1595	H	0.226260	0.032611	0.274516
	Al1596	Al	0.187479	0.000009	0.312468
	Al1597	Al	0.187509	0.250243	0.312531
	Al1598	Al	0.125001	0.250050	0.249967
	Al1599	Al	0.125013	0.000023	0.249906
	O1600	O	0.197576	0.040820	0.324450
	O1601	O	0.187514	0.125193	0.304334
	O1602	O	0.187471	0.375157	0.320705
	O1603	O	0.239868	0.041074	0.363069
	O1604	O	0.177353	0.041143	0.324407
	O1605	O	0.135075	0.041164	0.363089
	O1606	O	0.177369	0.209230	0.324464
	O1607	O	0.177388	0.290777	0.300574
	O1608	O	0.135072	0.290961	0.261924
	O1609	O	0.197592	0.209134	0.324409
	O1610	O	0.197584	0.290921	0.300564
	O1611	O	0.239842	0.290832	0.261999
	O1612	O	0.135074	0.209145	0.363071
	O1613	O	0.177383	0.458935	0.300539
	O1614	O	0.135155	0.459152	0.261836
	O1615	O	0.239906	0.459007	0.262052
	O1616	O	0.197540	0.459246	0.300599
	O1617	O	0.239878	0.209468	0.363071
	O1618	O	0.124970	0.375225	0.366813
	O1619	O	0.249979	0.124983	0.258310
	C1620	C	0.222949	0.214422	0.347565
	C1621	C	0.227248	0.125374	0.351505
	C1622	C	0.222901	0.036169	0.347647
	C1623	C	0.214469	0.035984	0.339971
	C1624	C	0.210185	0.125121	0.336017
	C1625	C	0.214515	0.214290	0.339900
	C1626	C	0.201135	0.124882	0.327611
	C1627	C	0.236330	0.125258	0.359866
	C1628	C	0.173799	0.125183	0.327652
	C1629	C	0.164750	0.125153	0.335983
	C1630	C	0.160433	0.214216	0.339946
	C1631	C	0.152005	0.214165	0.347614
	C1632	C	0.147679	0.125072	0.351541
	C1633	C	0.151989	0.036074	0.347585
	C1634	C	0.160415	0.036135	0.339914
	C1635	C	0.138626	0.125237	0.359889
	C1636	C	0.173801	0.374772	0.297364
	C1637	C	0.164796	0.374474	0.288930
	C1638	C	0.160490	0.463361	0.284974
	C1639	C	0.152079	0.463660	0.277296
	C1640	C	0.147739	0.374756	0.273427
	C1641	C	0.151991	0.285665	0.277464
	C1642	C	0.160419	0.285599	0.285157
	C1643	C	0.138696	0.374993	0.265052
	C1644	C	0.201129	0.375330	0.297377
	C1645	C	0.210162	0.375100	0.288996
	C1646	C	0.214479	0.286022	0.285100
	C1647	C	0.222900	0.286166	0.277429
	C1648	C	0.227231	0.375374	0.273504
	C1649	C	0.222943	0.464558	0.277445
	C1650	C	0.214520	0.464208	0.285125
	C1651	C	0.236294	0.374997	0.265156
	H1652	H	0.226162	0.217370	0.274384
	H1653	H	0.211253	0.216700	0.288092
	H1654	H	0.226254	0.283764	0.350445
	H1655	H	0.211302	0.283440	0.336881
	H1656	H	0.187466	0.125103	0.295368
	H1657	H	0.187440	0.374906	0.329656
	H1658	H	0.125104	0.375601	0.357847
	H1659	H	0.249969	0.125050	0.267262
	H1660	H	0.163597	0.216711	0.288305
	H1661	H	0.148655	0.216597	0.274548
	H1662	H	0.148710	0.283370	0.350609
	H1663	H	0.163695	0.283478	0.336968
	H1664	H	0.148874	0.532864	0.274251
	H1665	H	0.163734	0.532522	0.287982
	H1666	H	0.163706	-0.032681	0.336932
	H1667	H	0.148737	-0.032925	0.350570
	H1668	H	0.211195	-0.033068	0.337009
	H1669	H	0.226159	-0.033154	0.350641
	H1670	H	0.211258	0.533162	0.288193
	H1671	H	0.226198	0.533712	0.274492
	Al1672	Al	0.187494	-0.500067	0.437499
	Al1673	Al	0.187486	-0.249744	0.437485
	Al1674	Al	0.124920	-0.249869	0.375029
	Al1675	Al	0.124926	-0.499679	0.375010
	O1676	O	0.197589	-0.458961	0.449410
	O1677	O	0.187513	-0.374832	0.429306
	O1678	O	0.187443	-0.124806	0.445704
	O1679	O	0.239879	-0.459326	0.488067
	O1680	O	0.177422	-0.458777	0.449444
	O1681	O	0.135098	-0.459144	0.488079
	O1682	O	0.177393	-0.290612	0.449424
	O1683	O	0.177367	-0.208859	0.425623
	O1684	O	0.135063	-0.209148	0.386935
	O1685	O	0.197616	-0.290837	0.449379
	O1686	O	0.197534	-0.209339	0.425472
	O1687	O	0.239869	-0.208933	0.386848
	O1688	O	0.135069	-0.290794	0.488028
	O1689	O	0.177360	-0.040588	0.425577
	O1690	O	0.135035	-0.040813	0.387010
	O1691	O	0.239864	-0.040721	0.386882
	O1692	O	0.197590	-0.041182	0.425598
	O1693	O	0.239902	-0.291218	0.487998
	O1694	O	0.125007	-0.124885	0.491815
	O1695	O	0.249955	-0.374943	0.383172
	C1696	C	0.222981	-0.286323	0.472493
	C1697	C	0.227284	-0.375443	0.476458
	C1698	C	0.222930	-0.464354	0.472582
	C1699	C	0.214520	-0.464209	0.464908
	C1700	C	0.210209	-0.375084	0.460966
	C1701	C	0.214563	-0.285946	0.464834
	C1702	C	0.201169	-0.374852	0.452587
	C1703	C	0.236323	-0.375290	0.484841
	C1704	C	0.173826	-0.374836	0.452597
	C1705	C	0.164747	-0.375124	0.460911
	C1706	C	0.160420	-0.286060	0.464865
	C1707	C	0.151984	-0.285747	0.472545
	C1708	C	0.147675	-0.374800	0.476476
	C1709	C	0.152006	-0.463895	0.472567
	C1710	C	0.160428	-0.464147	0.464881
	C1711	C	0.138634	-0.374798	0.484829
	C1712	C	0.173811	-0.124996	0.422401
	C1713	C	0.164760	-0.125320	0.414005
	C1714	C	0.160487	-0.036222	0.410019
	C1715	C	0.152061	-0.036357	0.402351
	C1716	C	0.147709	-0.125139	0.398482
	C1717	C	0.151997	-0.214135	0.402420
	C1718	C	0.160428	-0.214188	0.410100
	C1719	C	0.138618	-0.125109	0.390163
	C1720	C	0.201153	-0.124960	0.422347
	C1721	C	0.210203	-0.125066	0.413987
	C1722	C	0.214484	-0.213986	0.409960
	C1723	C	0.222910	-0.213960	0.402265
	C1724	C	0.227261	-0.124963	0.398451
	C1725	C	0.222963	-0.035894	0.402434
	C1726	C	0.214551	-0.036039	0.410141
	C1727	C	0.236286	-0.124791	0.390068
	H1728	H	0.226130	-0.282792	0.399172
	H1729	H	0.211200	-0.282945	0.412870
	H1730	H	0.226266	-0.217493	0.475496
	H1731	H	0.211317	-0.216778	0.461769
	H1732	H	0.187434	-0.374753	0.420333
	H1733	H	0.187213	-0.124808	0.454698
	H1734	H	0.125072	-0.124345	0.482777
	H1735	H	0.249943	-0.374799	0.392155
	H1736	H	0.163656	-0.283113	0.413161
	H1737	H	0.148744	-0.283315	0.399444
	H1738	H	0.148747	-0.216759	0.475562
	H1739	H	0.163635	-0.217064	0.461830
	H1740	H	0.148826	0.032665	0.399353
	H1741	H	0.163753	0.032622	0.413011
	H1742	H	0.163662	-0.533298	0.461842
	H1743	H	0.148773	-0.533110	0.475631
	H1744	H	0.211245	-0.533289	0.461916
	H1745	H	0.226133	-0.533553	0.475651
	H1746	H	0.211303	0.033000	0.413196
	H1747	H	0.226235	0.033432	0.399479
	Al1748	Al	0.187480	0.000108	0.437495
	Al1749	Al	0.187463	0.250252	0.437483
	Al1750	Al	0.124968	0.250152	0.375023
	Al1751	Al	0.124961	-0.000072	0.375010
	O1752	O	0.197541	0.041156	0.449465
	O1753	O	0.187474	0.125154	0.429274
	O1754	O	0.187483	0.375257	0.445696
	O1755	O	0.239899	0.040925	0.487981
	O1756	O	0.177366	0.040966	0.449359
	O1757	O	0.135051	0.041140	0.488075
	O1758	O	0.177356	0.209145	0.449383
	O1759	O	0.177336	0.291282	0.425580
	O1760	O	0.135075	0.291123	0.386900
	O1761	O	0.197595	0.209373	0.449398
	O1762	O	0.197535	0.291086	0.425467
	O1763	O	0.239884	0.291119	0.386911
	O1764	O	0.135095	0.209307	0.488071
	O1765	O	0.177399	0.459399	0.425510
	O1766	O	0.135062	0.459303	0.386899
	O1767	O	0.239845	0.459195	0.386946
	O1768	O	0.197623	0.459102	0.425612
	O1769	O	0.239935	0.209106	0.487972
	O1770	O	0.125019	0.375166	0.491799
	O1771	O	0.249957	0.125256	0.383197
	C1772	C	0.223014	0.214347	0.472448
	C1773	C	0.227302	0.125333	0.476408
	C1774	C	0.222947	0.036167	0.472568
	C1775	C	0.214505	0.036185	0.464904
	C1776	C	0.210228	0.125269	0.460909
	C1777	C	0.214582	0.214341	0.464772
	C1778	C	0.201162	0.125115	0.452562
	C1779	C	0.236363	0.124992	0.484767
	C1780	C	0.173800	0.125090	0.452609
	C1781	C	0.164738	0.124816	0.460933
	C1782	C	0.160441	0.213885	0.464879
	C1783	C	0.152012	0.213870	0.472565
	C1784	C	0.147677	0.124792	0.476489
	C1785	C	0.152006	0.035680	0.472567
	C1786	C	0.160429	0.035664	0.464861
	C1787	C	0.138644	0.125012	0.484857
	C1788	C	0.173806	0.375440	0.422323
	C1789	C	0.164751	0.375236	0.413981
	C1790	C	0.160485	0.464236	0.409978
	C1791	C	0.152064	0.464216	0.402295
	C1792	C	0.147693	0.375154	0.398447
	C1793	C	0.151984	0.286081	0.402431
	C1794	C	0.160407	0.286139	0.410099
	C1795	C	0.138633	0.375224	0.390122
	C1796	C	0.201131	0.374888	0.422297
	C1797	C	0.210162	0.374851	0.413914
	C1798	C	0.214443	0.285693	0.409971
	C1799	C	0.222868	0.285811	0.402282
	C1800	C	0.227215	0.374865	0.398419
	C1801	C	0.222959	0.463870	0.402411
	C1802	C	0.214546	0.463769	0.410079
	C1803	C	0.236268	0.374960	0.390080
	H1804	H	0.226078	0.216989	0.399185
	H1805	H	0.211149	0.216568	0.412895
	H1806	H	0.226282	0.283275	0.475371
	H1807	H	0.211381	0.283709	0.461728
	H1808	H	0.187412	0.125351	0.420292
	H1809	H	0.187352	0.375383	0.454706
	H1810	H	0.125045	0.375609	0.482774
	H1811	H	0.250026	0.125354	0.392205
	H1812	H	0.163627	0.216935	0.413150
	H1813	H	0.148689	0.217300	0.399432
	H1814	H	0.148796	0.283110	0.475623
	H1815	H	0.163688	0.283076	0.461923
	H1816	H	0.148857	0.533242	0.399247
	H1817	H	0.163783	0.533284	0.412933
	H1818	H	0.163688	-0.033551	0.461901
	H1819	H	0.148785	-0.033482	0.475631
	H1820	H	0.211218	-0.033017	0.461947
	H1821	H	0.226177	-0.033056	0.475606
	H1822	H	0.211328	0.533201	0.413111
	H1823	H	0.226275	0.532969	0.399492
	Al1824	Al	0.187477	-0.500124	0.562495
	Al1825	Al	0.187467	-0.249796	0.562520
	Al1826	Al	0.125020	-0.249979	0.499990
	Al1827	Al	0.125027	-0.499957	0.500003
	O1828	O	0.197585	-0.459314	0.574416
	O1829	O	0.187484	-0.374899	0.554303
	O1830	O	0.187481	-0.124891	0.570757
	O1831	O	0.239891	-0.459020	0.613070
	O1832	O	0.177363	-0.459315	0.574422
	O1833	O	0.135026	-0.459041	0.612990
	O1834	O	0.177390	-0.290903	0.574445
	O1835	O	0.177375	-0.209129	0.550607
	O1836	O	0.135143	-0.208988	0.511914
	O1837	O	0.197574	-0.290867	0.574492
	O1838	O	0.197602	-0.208836	0.550612
	O1839	O	0.239876	-0.209087	0.511893
	O1840	O	0.135122	-0.290777	0.613110
	O1841	O	0.177403	-0.041134	0.550539
	O1842	O	0.135126	-0.040719	0.511954
	O1843	O	0.239834	-0.041012	0.511853
	O1844	O	0.197587	-0.040418	0.550545
	O1845	O	0.239806	-0.290822	0.613196
	O1846	O	0.125032	-0.125041	0.616840
	O1847	O	0.249997	-0.374979	0.508184
	C1848	C	0.222904	-0.286117	0.597617
	C1849	C	0.227233	-0.375206	0.601530
	C1850	C	0.222966	-0.464360	0.597595
	C1851	C	0.214544	-0.464439	0.589875
	C1852	C	0.210207	-0.375321	0.585979
	C1853	C	0.214499	-0.286209	0.589883
	C1854	C	0.201134	-0.375170	0.577660
	C1855	C	0.236286	-0.374981	0.609903
	C1856	C	0.173799	-0.375334	0.577623
	C1857	C	0.164768	-0.375385	0.586020
	C1858	C	0.160479	-0.286204	0.589987
	C1859	C	0.152051	-0.285882	0.597670
	C1860	C	0.147695	-0.375094	0.601527
	C1861	C	0.151984	-0.464335	0.597588
	C1862	C	0.160420	-0.464522	0.589909
	C1863	C	0.138661	-0.374903	0.609898
	C1864	C	0.173821	-0.125183	0.547427
	C1865	C	0.164796	-0.125264	0.538983
	C1866	C	0.160489	-0.036043	0.535059
	C1867	C	0.152092	-0.035926	0.527379
	C1868	C	0.147747	-0.124964	0.523487
	C1869	C	0.152044	-0.214245	0.527428
	C1870	C	0.160445	-0.214344	0.535115
	C1871	C	0.138696	-0.124771	0.515109
	C1872	C	0.201176	-0.124710	0.547385
	C1873	C	0.210214	-0.124961	0.539017
	C1874	C	0.214553	-0.214067	0.535174
	C1875	C	0.222980	-0.214101	0.527473
	C1876	C	0.227252	-0.125075	0.523482
	C1877	C	0.222914	-0.035851	0.527332
	C1878	C	0.214497	-0.035994	0.535027
	C1879	C	0.236305	-0.125194	0.515077
	H1880	H	0.226256	-0.283219	0.524533
	H1881	H	0.211334	-0.283051	0.538223
	H1882	H	0.226159	-0.216981	0.600578
	H1883	H	0.211226	-0.217319	0.586896
	H1884	H	0.187576	-0.374613	0.545319
	H1885	H	0.187511	-0.124784	0.579722
	H1886	H	0.124946	-0.125141	0.607840
	H1887	H	0.250024	-0.375251	0.517135
	H1888	H	0.163694	-0.283059	0.538234
	H1889	H	0.148772	-0.283048	0.524463
	H1890	H	0.148855	-0.216833	0.600778
	H1891	H	0.163785	-0.217151	0.587019
	H1892	H	0.148836	0.033432	0.524323
	H1893	H	0.163726	0.032934	0.538108
	H1894	H	0.163643	-0.534063	0.586878
	H1895	H	0.148725	-0.533491	0.600592
	H1896	H	0.211297	-0.533780	0.586894
	H1897	H	0.226281	-0.533412	0.600534
	H1898	H	0.211219	0.033275	0.537949
	H1899	H	0.226136	0.033130	0.524230
	Al1900	Al	0.187503	0.000036	0.562514
	Al1901	Al	0.187526	0.250261	0.562529
	Al1902	Al	0.125005	0.250296	0.500003
	Al1903	Al	0.124991	-0.000024	0.500058
	O1904	O	0.197592	0.040764	0.574455
	O1905	O	0.187408	0.125306	0.554326
	O1906	O	0.187512	0.374990	0.570717
	O1907	O	0.239872	0.040881	0.613133
	O1908	O	0.177387	0.040614	0.574432
	O1909	O	0.135061	0.041096	0.612976
	O1910	O	0.177425	0.208778	0.574530
	O1911	O	0.177390	0.290963	0.550595
	O1912	O	0.135112	0.290807	0.511947
	O1913	O	0.197609	0.209193	0.574418
	O1914	O	0.197606	0.290994	0.550581
	O1915	O	0.239846	0.291175	0.511851
	O1916	O	0.135145	0.209267	0.613062
	O1917	O	0.177413	0.459044	0.550575
	O1918	O	0.135125	0.458932	0.511909
	O1919	O	0.239854	0.459365	0.511891
	O1920	O	0.197567	0.459277	0.550524
	O1921	O	0.239875	0.209099	0.613135
	O1922	O	0.124965	0.375080	0.616793
	O1923	O	0.249960	0.125001	0.508167
	C1924	C	0.222944	0.214267	0.597615
	C1925	C	0.227251	0.125055	0.601550
	C1926	C	0.222943	0.035926	0.597624
	C1927	C	0.214526	0.035757	0.589929
	C1928	C	0.210210	0.124967	0.586002
	C1929	C	0.214525	0.214211	0.589903
	C1930	C	0.201148	0.124944	0.577632
	C1931	C	0.236304	0.125135	0.609937
	C1932	C	0.173830	0.124884	0.577667
	C1933	C	0.164797	0.124686	0.586040
	C1934	C	0.160527	0.213938	0.589996
	C1935	C	0.152118	0.213934	0.597686
	C1936	C	0.147734	0.125015	0.601517
	C1937	C	0.152035	0.035810	0.597558
	C1938	C	0.160440	0.035628	0.589873
	C1939	C	0.138688	0.125159	0.609880
	C1940	C	0.173833	0.374928	0.547395
	C1941	C	0.164808	0.375203	0.539002
	C1942	C	0.160526	0.464282	0.535019
	C1943	C	0.152089	0.464248	0.527336
	C1944	C	0.147755	0.375107	0.523503
	C1945	C	0.152075	0.286084	0.527425
	C1946	C	0.160503	0.286063	0.535108
	C1947	C	0.138699	0.374799	0.515122
	C1948	C	0.201148	0.375102	0.547368
	C1949	C	0.210218	0.375191	0.539021
	C1950	C	0.214546	0.286079	0.535133
	C1951	C	0.222945	0.286189	0.527427
	C1952	C	0.227246	0.375281	0.523465
	C1953	C	0.222905	0.464410	0.527339
	C1954	C	0.214496	0.464352	0.535029
	C1955	C	0.236293	0.375138	0.515037
	H1956	H	0.226186	0.217182	0.524401
	H1957	H	0.211298	0.216896	0.538170
	H1958	H	0.226222	0.283106	0.600576
	H1959	H	0.211269	0.283152	0.586861
	H1960	H	0.187218	0.125658	0.545401
	H1961	H	0.187405	0.375304	0.579767
	H1962	H	0.124841	0.375172	0.607773
	H1963	H	0.249924	0.125013	0.517137
	H1964	H	0.163727	0.217169	0.538109
	H1965	H	0.148840	0.217064	0.524418
	H1966	H	0.148914	0.282967	0.600795
	H1967	H	0.163835	0.282948	0.587004
	H1968	H	0.148904	0.533277	0.524237
	H1969	H	0.163805	0.533262	0.537998
	H1970	H	0.163621	-0.033556	0.586781
	H1971	H	0.148761	-0.033353	0.600569
	H1972	H	0.211243	-0.033137	0.586948
	H1973	H	0.226177	-0.033206	0.600623
	H1974	H	0.211212	0.533149	0.538003
	H1975	H	0.226133	0.533583	0.524283
	Al1976	Al	0.187446	-0.500073	0.687568
	Al1977	Al	0.187459	-0.250205	0.687635
	Al1978	Al	0.125007	-0.249964	0.625049
	Al1979	Al	0.124995	-0.499825	0.624994
	O1980	O	0.197627	-0.459107	0.699405
	O1981	O	0.187460	-0.375229	0.679372
	O1982	O	0.187461	-0.125101	0.695816
	O1983	O	0.239880	-0.458978	0.738166
	O1984	O	0.177369	-0.459019	0.699509
	O1985	O	0.135045	-0.458762	0.738124
	O1986	O	0.177371	-0.290469	0.699574
	O1987	O	0.177379	-0.209370	0.675638
	O1988	O	0.135090	-0.208988	0.636974
	O1989	O	0.197529	-0.290813	0.699589
	O1990	O	0.197553	-0.209455	0.675746
	O1991	O	0.239837	-0.209195	0.637014
	O1992	O	0.135106	-0.290601	0.738166
	O1993	O	0.177362	-0.041284	0.675629
	O1994	O	0.135140	-0.040715	0.636907
	O1995	O	0.239834	-0.040797	0.637013
	O1996	O	0.197556	-0.041245	0.675672
	O1997	O	0.239872	-0.290745	0.738181
	O1998	O	0.125017	-0.124946	0.741849
	O1999	O	0.249964	-0.374969	0.633344
	C2000	C	0.222898	-0.285773	0.722721
	C2001	C	0.227249	-0.374671	0.726599
	C2002	C	0.222956	-0.463705	0.722608
	C2003	C	0.214542	-0.464024	0.714900
	C2004	C	0.210203	-0.375031	0.711033
	C2005	C	0.214483	-0.285817	0.715025
	C2006	C	0.201143	-0.374817	0.702675
	C2007	C	0.236291	-0.374875	0.734987
	C2008	C	0.173780	-0.374904	0.702707
	C2009	C	0.164748	-0.375218	0.711072
	C2010	C	0.160443	-0.286143	0.714985
	C2011	C	0.152017	-0.286047	0.722642
	C2012	C	0.147694	-0.375019	0.726561
	C2013	C	0.151990	-0.464171	0.722640
	C2014	C	0.160417	-0.464267	0.714978
	C2015	C	0.138632	-0.374772	0.734950
	C2016	C	0.173794	-0.125371	0.672435
	C2017	C	0.164755	-0.125181	0.664043
	C2018	C	0.160447	-0.036011	0.660167
	C2019	C	0.152022	-0.035876	0.652477
	C2020	C	0.147729	-0.124891	0.648492
	C2021	C	0.152047	-0.214087	0.652361
	C2022	C	0.160464	-0.214160	0.660078
	C2023	C	0.138663	-0.124912	0.640159
	C2024	C	0.201107	-0.125469	0.672517
	C2025	C	0.210194	-0.125135	0.664177
	C2026	C	0.214518	-0.213967	0.660220
	C2027	C	0.222914	-0.213819	0.652502
	C2028	C	0.227218	-0.124936	0.648575
	C2029	C	0.222901	-0.036005	0.652524
	C2030	C	0.214500	-0.036128	0.660249
	C2031	C	0.236265	-0.124864	0.640234
	H2032	H	0.226179	-0.282617	0.649469
	H2033	H	0.211259	-0.282652	0.663215
	H2034	H	0.226139	-0.216804	0.725743
	H2035	H	0.211189	-0.216709	0.712078
	H2036	H	0.187601	-0.374808	0.670425
	H2037	H	0.187589	-0.124693	0.704796
	H2038	H	0.125215	-0.124969	0.732909
	H2039	H	0.250119	-0.374795	0.642324
	H2040	H	0.163693	-0.283284	0.663088
	H2041	H	0.148765	-0.282852	0.649387
	H2042	H	0.148775	-0.217311	0.725643
	H2043	H	0.163705	-0.217112	0.711956
	H2044	H	0.148753	0.033184	0.649543
	H2045	H	0.163690	0.032697	0.663224
	H2046	H	0.163646	-0.533163	0.711931
	H2047	H	0.148716	-0.532693	0.725617
	H2048	H	0.211297	-0.533149	0.711919
	H2049	H	0.226253	-0.532649	0.725590
	H2050	H	0.211251	0.032820	0.663259
	H2051	H	0.226147	0.033131	0.649508
	Al2052	Al	0.187463	-0.000214	0.687550
	Al2053	Al	0.187499	0.250019	0.687649
	Al2054	Al	0.125025	0.250106	0.624971
	Al2055	Al	0.125017	-0.000237	0.624982
	O2056	O	0.197619	0.040762	0.699474
	O2057	O	0.187441	0.124936	0.679385
	O2058	O	0.187409	0.374963	0.695824
	O2059	O	0.239885	0.040879	0.738197
	O2060	O	0.177315	0.040771	0.699408
	O2061	O	0.135064	0.041086	0.738064
	O2062	O	0.177375	0.208904	0.699567
	O2063	O	0.177366	0.290607	0.675715
	O2064	O	0.135073	0.290850	0.636951
	O2065	O	0.197544	0.209000	0.699632
	O2066	O	0.197583	0.290653	0.675625
	O2067	O	0.239836	0.291130	0.637013
	O2068	O	0.135075	0.209270	0.738155
	O2069	O	0.177369	0.458649	0.675642
	O2070	O	0.135111	0.458931	0.636885
	O2071	O	0.239859	0.459224	0.636977
	O2072	O	0.197558	0.458817	0.675630
	O2073	O	0.239873	0.208986	0.738254
	O2074	O	0.124972	0.375071	0.741848
	O2075	O	0.249867	0.124898	0.633343
	C2076	C	0.222963	0.214086	0.722680
	C2077	C	0.227314	0.125191	0.726566
	C2078	C	0.223009	0.036154	0.722623
	C2079	C	0.214604	0.036026	0.714884
	C2080	C	0.210250	0.124979	0.711016
	C2081	C	0.214561	0.214008	0.714959
	C2082	C	0.201190	0.124825	0.702686
	C2083	C	0.236304	0.125061	0.735009
	C2084	C	0.173766	0.124947	0.702697
	C2085	C	0.164734	0.125089	0.711064
	C2086	C	0.160418	0.213984	0.714947
	C2087	C	0.151992	0.214099	0.722646
	C2088	C	0.147693	0.125214	0.726577
	C2089	C	0.151978	0.036394	0.722656
	C2090	C	0.160405	0.036307	0.714965
	C2091	C	0.138651	0.125493	0.734946
	C2092	C	0.173793	0.374649	0.672502
	C2093	C	0.164753	0.374364	0.664127
	C2094	C	0.160456	0.463517	0.660192
	C2095	C	0.152042	0.463784	0.652480
	C2096	C	0.147714	0.374953	0.648523
	C2097	C	0.152060	0.285907	0.652370
	C2098	C	0.160474	0.285566	0.660086
	C2099	C	0.138657	0.375021	0.640136
	C2100	C	0.201121	0.374824	0.672402
	C2101	C	0.210192	0.375016	0.664070
	C2102	C	0.214474	0.285957	0.660089
	C2103	C	0.222905	0.286067	0.652433
	C2104	C	0.227248	0.375225	0.648595
	C2105	C	0.222962	0.464193	0.652566
	C2106	C	0.214523	0.464203	0.660202
	C2107	C	0.236304	0.375246	0.640241
	H2108	H	0.226140	0.217045	0.649368
	H2109	H	0.211175	0.216955	0.662995
	H2110	H	0.226193	0.283237	0.725701
	H2111	H	0.211284	0.282863	0.711974
	H2112	H	0.187343	0.125254	0.670404
	H2113	H	0.187293	0.375305	0.704811
	H2114	H	0.125076	0.375002	0.732844
	H2115	H	0.249823	0.124156	0.642287
	H2116	H	0.163753	0.216565	0.663015
	H2117	H	0.148818	0.216854	0.649296
	H2118	H	0.148739	0.283269	0.725655
	H2119	H	0.163653	0.282981	0.711912
	H2120	H	0.148837	0.532724	0.649434
	H2121	H	0.163732	0.532250	0.663193
	H2122	H	0.163613	-0.032606	0.711964
	H2123	H	0.148750	-0.032438	0.725641
	H2124	H	0.211381	-0.033127	0.711853
	H2125	H	0.226272	-0.032823	0.725650
	H2126	H	0.211265	0.533269	0.663208
	H2127	H	0.226245	0.533264	0.649613
	Al2128	Al	0.187475	-0.499956	0.812600
	Al2129	Al	0.187507	-0.250016	0.812644
	Al2130	Al	0.124992	-0.249965	0.750107
	Al2131	Al	0.124986	-0.499911	0.750068
	O2132	O	0.197595	-0.459256	0.824490
	O2133	O	0.187488	-0.374780	0.804403
	O2134	O	0.187539	-0.125006	0.820813
	O2135	O	0.239925	-0.459304	0.863073
	O2136	O	0.177422	-0.459003	0.824575
	O2137	O	0.135094	-0.458878	0.863270
	O2138	O	0.177395	-0.290768	0.824615
	O2139	O	0.177394	-0.209258	0.800672
	O2140	O	0.135105	-0.208951	0.762035
	O2141	O	0.197619	-0.290868	0.824493
	O2142	O	0.197618	-0.209033	0.800734
	O2143	O	0.239842	-0.209200	0.762001
	O2144	O	0.135086	-0.290779	0.863225
	O2145	O	0.177436	-0.040852	0.800615
	O2146	O	0.135132	-0.040817	0.761968
	O2147	O	0.239871	-0.041206	0.762033
	O2148	O	0.197665	-0.040874	0.800698
	O2149	O	0.239897	-0.291057	0.863073
	O2150	O	0.124981	-0.124855	0.866968
	O2151	O	0.250012	-0.375031	0.758331
	C2152	C	0.222974	-0.286245	0.847590
	C2153	C	0.227289	-0.375326	0.851532
	C2154	C	0.222937	-0.464531	0.847660
	C2155	C	0.214523	-0.464328	0.839985
	C2156	C	0.210226	-0.375242	0.836047
	C2157	C	0.214543	-0.286070	0.839938
	C2158	C	0.201179	-0.375067	0.827667
	C2159	C	0.236341	-0.375185	0.859900
	C2160	C	0.173837	-0.374862	0.827797
	C2161	C	0.164762	-0.374914	0.836129
	C2162	C	0.160418	-0.286020	0.840029
	C2163	C	0.151987	-0.286132	0.847716
	C2164	C	0.147668	-0.375074	0.851644
	C2165	C	0.152006	-0.463929	0.847731
	C2166	C	0.160442	-0.464091	0.840058
	C2167	C	0.138662	-0.374861	0.860043
	C2168	C	0.173818	-0.125084	0.797523
	C2169	C	0.164768	-0.125004	0.789169
	C2170	C	0.160462	-0.035878	0.785200
	C2171	C	0.152072	-0.035920	0.777495
	C2172	C	0.147714	-0.125015	0.773619
	C2173	C	0.152016	-0.214066	0.777590
	C2174	C	0.160415	-0.214052	0.785292
	C2175	C	0.138676	-0.124833	0.765198
	C2176	C	0.201226	-0.125348	0.797508
	C2177	C	0.210216	-0.125483	0.789083
	C2178	C	0.214493	-0.214424	0.785114
	C2179	C	0.222900	-0.214409	0.777413
	C2180	C	0.227242	-0.125387	0.773565
	C2181	C	0.222960	-0.036313	0.777541
	C2182	C	0.214554	-0.036421	0.785245
	C2183	C	0.236286	-0.125263	0.765227
	H2184	H	0.226125	-0.283702	0.774355
	H2185	H	0.211259	-0.283515	0.788128
	H2186	H	0.226243	-0.217161	0.850634
	H2187	H	0.211327	-0.217007	0.836884
	H2188	H	0.187483	-0.374894	0.795396
	H2189	H	0.187563	-0.125093	0.829821
	H2190	H	0.125046	-0.124244	0.858072
	H2191	H	0.250002	-0.374792	0.767284
	H2192	H	0.163643	-0.282828	0.788409
	H2193	H	0.148730	-0.282881	0.774597
	H2194	H	0.148729	-0.217297	0.850759
	H2195	H	0.163640	-0.216967	0.837056
	H2196	H	0.148843	0.032928	0.774417
	H2197	H	0.163713	0.032931	0.788191
	H2198	H	0.163720	-0.532960	0.837080
	H2199	H	0.148776	-0.533110	0.850737
	H2200	H	0.211261	-0.533473	0.836947
	H2201	H	0.226144	-0.533487	0.850725
	H2202	H	0.211339	0.032389	0.788372
	H2203	H	0.226234	0.032776	0.774565
	Al2204	Al	0.187516	-0.000081	0.812596
	Al2205	Al	0.187512	0.250056	0.812605
	Al2206	Al	0.124964	0.250215	0.750099
	Al2207	Al	0.125007	0.000155	0.750057
	O2208	O	0.197629	0.040990	0.824463
	O2209	O	0.187509	0.125116	0.804351
	O2210	O	0.187477	0.375172	0.820804
	O2211	O	0.239926	0.040780	0.863078
	O2212	O	0.177400	0.040950	0.824556
	O2213	O	0.135184	0.040727	0.863338
	O2214	O	0.177435	0.209047	0.824562
	O2215	O	0.177377	0.290974	0.800725
	O2216	O	0.135044	0.290929	0.762066
	O2217	O	0.197651	0.209357	0.824456
	O2218	O	0.197529	0.291139	0.800643
	O2219	O	0.239863	0.290812	0.762051
	O2220	O	0.135143	0.209045	0.863324
	O2221	O	0.177350	0.459371	0.800656
	O2222	O	0.135109	0.459343	0.762001
	O2223	O	0.239896	0.459088	0.762091
	O2224	O	0.197625	0.459392	0.800699
	O2225	O	0.239931	0.209165	0.863072
	O2226	O	0.125049	0.375106	0.867017
	O2227	O	0.249958	0.125114	0.758344
	C2228	C	0.222959	0.214315	0.847708
	C2229	C	0.227289	0.125098	0.851561
	C2230	C	0.222999	0.035796	0.847616
	C2231	C	0.214583	0.035857	0.839921
	C2232	C	0.210253	0.124883	0.836056
	C2233	C	0.214540	0.214182	0.840017
	C2234	C	0.201223	0.125155	0.827656
	C2235	C	0.236354	0.125078	0.859902
	C2236	C	0.173845	0.125028	0.827725
	C2237	C	0.164742	0.125090	0.836062
	C2238	C	0.160420	0.214134	0.839967
	C2239	C	0.152000	0.214203	0.847676
	C2240	C	0.147717	0.124998	0.851655
	C2241	C	0.152043	0.035956	0.847752
	C2242	C	0.160460	0.035942	0.840037
	C2243	C	0.138697	0.124862	0.860089
	C2244	C	0.173811	0.374972	0.797482
	C2245	C	0.164756	0.374636	0.789117
	C2246	C	0.160494	0.463750	0.785122
	C2247	C	0.152046	0.463734	0.777434
	C2248	C	0.147674	0.374634	0.773632
	C2249	C	0.151938	0.285349	0.777660
	C2250	C	0.160378	0.285528	0.785320
	C2251	C	0.138655	0.375089	0.765203
	C2252	C	0.201156	0.375235	0.797506
	C2253	C	0.210198	0.375168	0.789116
	C2254	C	0.214489	0.285958	0.785128
	C2255	C	0.222901	0.285756	0.777443
	C2256	C	0.227252	0.374811	0.773577
	C2257	C	0.222968	0.464045	0.777561
	C2258	C	0.214556	0.464325	0.785248
	C2259	C	0.236293	0.374923	0.765223
	H2260	H	0.226111	0.216658	0.774351
	H2261	H	0.211233	0.216847	0.788159
	H2262	H	0.226190	0.283578	0.850730
	H2263	H	0.211261	0.283059	0.837070
	H2264	H	0.187507	0.124844	0.795367
	H2265	H	0.187367	0.374990	0.829782
	H2266	H	0.125030	0.375215	0.858024
	H2267	H	0.249874	0.124853	0.767266
	H2268	H	0.163570	0.216562	0.788431
	H2269	H	0.148679	0.216294	0.774685
	H2270	H	0.148764	0.283401	0.850668
	H2271	H	0.163672	0.283148	0.836946
	H2272	H	0.148883	0.532761	0.774238
	H2273	H	0.163793	0.533086	0.788033
	H2274	H	0.163715	-0.033277	0.837078
	H2275	H	0.148844	-0.033341	0.850823
	H2276	H	0.211372	-0.033252	0.836904
	H2277	H	0.226278	-0.033475	0.850604
	H2278	H	0.211357	0.533104	0.788346
	H2279	H	0.226243	0.532994	0.774576
	Al2280	Al	0.187605	-0.500149	0.937604
	Al2281	Al	0.187543	-0.250258	0.937595
	Al2282	Al	0.124963	-0.249771	0.875142
	Al2283	Al	0.125039	-0.500013	0.875190
	O2284	O	0.197663	-0.458690	0.949586
	O2285	O	0.187555	-0.375347	0.929413
	O2286	O	0.187542	-0.125002	0.945821
	O2287	O	0.239991	-0.458908	0.988134
	O2288	O	0.177518	-0.459243	0.949612
	O2289	O	0.135162	-0.459472	0.988127
	O2290	O	0.177457	-0.291200	0.949516
	O2291	O	0.177395	-0.209259	0.925743
	O2292	O	0.135092	-0.209422	0.887066
	O2293	O	0.197685	-0.290434	0.949556
	O2294	O	0.197655	-0.209105	0.925672
	O2295	O	0.239887	-0.209384	0.886962
	O2296	O	0.135167	-0.291268	0.988092
	O2297	O	0.177360	-0.040668	0.925740
	O2298	O	0.135106	-0.041152	0.887134
	O2299	O	0.239887	-0.040986	0.886959
	O2300	O	0.197624	-0.040697	0.925713
	O2301	O	0.239998	-0.290857	0.988144
	O2302	O	0.125075	-0.125137	0.991833
	O2303	O	0.249999	-0.374861	0.883248
	C2304	C	0.223078	-0.285882	0.972676
	C2305	C	0.227365	-0.374840	0.976600
	C2306	C	0.223016	-0.463666	0.972712
	C2307	C	0.214584	-0.463395	0.965064
	C2308	C	0.210286	-0.374525	0.961149
	C2309	C	0.214637	-0.285718	0.965035
	C2310	C	0.201243	-0.374553	0.952774
	C2311	C	0.236425	-0.374821	0.984941
	C2312	C	0.173890	-0.375149	0.952719
	C2313	C	0.164815	-0.375474	0.961031
	C2314	C	0.160470	-0.286488	0.964912
	C2315	C	0.152039	-0.286390	0.972542
	C2316	C	0.147743	-0.375388	0.976510
	C2317	C	0.152071	-0.464405	0.972592
	C2318	C	0.160501	-0.464465	0.964961
	C2319	C	0.138720	-0.375334	0.984878
	C2320	C	0.173833	-0.125094	0.922517
	C2321	C	0.164799	-0.125290	0.914109
	C2322	C	0.160504	-0.036094	0.910145
	C2323	C	0.152071	-0.035988	0.902490
	C2324	C	0.147768	-0.125460	0.898567
	C2325	C	0.152092	-0.214527	0.902489
	C2326	C	0.160510	-0.214649	0.910181
	C2327	C	0.138667	-0.125354	0.890301
	C2328	C	0.201172	-0.124804	0.922468
	C2329	C	0.210245	-0.124809	0.914110
	C2330	C	0.214547	-0.214001	0.910164
	C2331	C	0.222947	-0.213959	0.902485
	C2332	C	0.227286	-0.124934	0.898550
	C2333	C	0.223024	-0.035735	0.902564
	C2334	C	0.214622	-0.035656	0.910263
	C2335	C	0.236314	-0.125395	0.890130
	H2336	H	0.226156	-0.283130	0.899382
	H2337	H	0.211267	-0.283226	0.913142
	H2338	H	0.226362	-0.217115	0.975663
	H2339	H	0.211423	-0.216823	0.962032
	H2340	H	0.187470	-0.375085	0.920460
	H2341	H	0.187519	-0.124863	0.954783
	H2342	H	0.125078	-0.124540	0.982835
	H2343	H	0.249964	-0.374749	0.892207
	H2344	H	0.163742	-0.283714	0.913247
	H2345	H	0.148837	-0.283435	0.899509
	H2346	H	0.148775	-0.217404	0.975510
	H2347	H	0.163723	-0.217315	0.961874
	H2348	H	0.148827	0.033069	0.899505
	H2349	H	0.163760	0.032979	0.913165
	H2350	H	0.163772	-0.533132	0.961947
	H2351	H	0.148804	-0.533214	0.975609
	H2352	H	0.211318	-0.532206	0.962051
	H2353	H	0.226274	-0.532774	0.975715
	H2354	H	0.211387	0.033382	0.913329
	H2355	H	0.226282	0.033294	0.899529
	Al2356	Al	0.187536	-0.000190	0.937612
	Al2357	Al	0.187550	0.249733	0.937608
	Al2358	Al	0.125018	0.250350	0.875206
	Al2359	Al	0.125039	0.000052	0.875209
	O2360	O	0.197611	0.040763	0.949572
	O2361	O	0.187522	0.124706	0.929407
	O2362	O	0.187592	0.374823	0.945765
	O2363	O	0.239947	0.040521	0.988117
	O2364	O	0.177498	0.041151	0.949647
	O2365	O	0.135188	0.041055	0.988147
	O2366	O	0.177414	0.209395	0.949530
	O2367	O	0.177465	0.291240	0.925659
	O2368	O	0.135120	0.291014	0.887185
	O2369	O	0.197647	0.208828	0.949518
	O2370	O	0.197656	0.290795	0.925653
	O2371	O	0.239898	0.290909	0.886912
	O2372	O	0.135136	0.209105	0.988137
	O2373	O	0.177423	0.459577	0.925783
	O2374	O	0.135129	0.459317	0.887123
	O2375	O	0.239890	0.459126	0.886918
	O2376	O	0.197694	0.458938	0.925681
	O2377	O	0.239943	0.208700	0.988058
	O2378	O	0.125044	0.374851	0.991817
	O2379	O	0.249997	0.124863	0.883182
	C2380	C	0.223002	0.213484	0.972710
	C2381	C	0.227333	0.124569	0.976558
	C2382	C	0.223000	0.035670	0.972654
	C2383	C	0.214560	0.035577	0.964999
	C2384	C	0.210251	0.124579	0.961105
	C2385	C	0.214564	0.213356	0.965036
	C2386	C	0.201213	0.124737	0.952719
	C2387	C	0.236387	0.124536	0.984928
	C2388	C	0.173900	0.125431	0.952791
	C2389	C	0.164809	0.125253	0.961070
	C2390	C	0.160467	0.214199	0.964929
	C2391	C	0.152035	0.214100	0.972573
	C2392	C	0.147751	0.125095	0.976532
	C2393	C	0.152100	0.036071	0.972654
	C2394	C	0.160529	0.036166	0.965005
	C2395	C	0.138727	0.125162	0.984950
	C2396	C	0.173877	0.375222	0.922504
	C2397	C	0.164834	0.375472	0.914130
	C2398	C	0.160509	0.464519	0.910223
	C2399	C	0.152098	0.464434	0.902552
	C2400	C	0.147780	0.375314	0.898643
	C2401	C	0.152095	0.286238	0.902568
	C2402	C	0.160517	0.286433	0.910250
	C2403	C	0.138693	0.375121	0.890348
	C2404	C	0.201249	0.374834	0.922492
	C2405	C	0.210275	0.374842	0.914065
	C2406	C	0.214577	0.285893	0.910123
	C2407	C	0.222994	0.285685	0.902427
	C2408	C	0.227300	0.374819	0.898504
	C2409	C	0.223006	0.463853	0.902483
	C2410	C	0.214594	0.463816	0.910175
	C2411	C	0.236347	0.374767	0.890114
	H2412	H	0.226280	0.216833	0.899450
	H2413	H	0.211349	0.216886	0.913156
	H2414	H	0.226221	0.282408	0.975791
	H2415	H	0.211294	0.282235	0.962095
	H2416	H	0.187557	0.124627	0.920460
	H2417	H	0.187584	0.375151	0.954772
	H2418	H	0.125093	0.374995	0.982865
	H2419	H	0.249953	0.124839	0.892186
	H2420	H	0.163802	0.217455	0.913261
	H2421	H	0.148779	0.217249	0.899621
	H2422	H	0.148801	0.282960	0.975666
	H2423	H	0.163707	0.283431	0.961890
	H2424	H	0.148814	0.533252	0.899594
	H2425	H	0.163760	0.533519	0.913235
	H2426	H	0.163834	-0.032849	0.962060
	H2427	H	0.148898	-0.032648	0.975735
	H2428	H	0.211301	-0.033451	0.962029
	H2429	H	0.226283	-0.033303	0.975630
	H2430	H	0.211350	0.532751	0.913275
	H2431	H	0.226286	0.532916	0.899527
	Al2432	Al	0.312577	-0.500057	0.062580
	Al2433	Al	0.312555	-0.249833	0.062524
	Al2434	Al	0.250062	-0.249989	0.000063
	Al2435	Al	0.250086	-0.499912	0.000047
	O2436	O	0.322689	-0.458915	0.074516
	O2437	O	0.312551	-0.375173	0.054403
	O2438	O	0.312603	-0.125063	0.070770
	O2439	O	0.364842	-0.459334	0.113351
	O2440	O	0.302444	-0.459354	0.074519
	O2441	O	0.260121	-0.459222	0.113094
	O2442	O	0.302449	-0.291271	0.074431
	O2443	O	0.302467	-0.209120	0.050630
	O2444	O	0.260142	-0.209109	0.012056
	O2445	O	0.322673	-0.290691	0.074467
	O2446	O	0.322620	-0.209296	0.050571
	O2447	O	0.364923	-0.209608	0.012026
	O2448	O	0.260146	-0.290991	0.113120
	O2449	O	0.302460	-0.040993	0.050728
	O2450	O	0.260181	-0.041066	0.011908
	O2451	O	0.364964	-0.041307	0.012050
	O2452	O	0.322677	-0.041086	0.050676
	O2453	O	0.364947	-0.291182	0.113167
	O2454	O	0.250026	-0.125388	0.116826
	O2455	O	0.375071	-0.375236	0.008291
	C2456	C	0.348061	-0.286127	0.097613
	C2457	C	0.352299	-0.375248	0.101655
	C2458	C	0.347945	-0.464244	0.097814
	C2459	C	0.339537	-0.464144	0.090086
	C2460	C	0.335271	-0.374905	0.086076
	C2461	C	0.339650	-0.286118	0.089910
	C2462	C	0.326251	-0.374798	0.077677
	C2463	C	0.361337	-0.375266	0.110068
	C2464	C	0.298871	-0.375188	0.077654
	C2465	C	0.289827	-0.375170	0.086053
	C2466	C	0.285521	-0.286105	0.089978
	C2467	C	0.277106	-0.285955	0.097668
	C2468	C	0.272783	-0.375140	0.101577
	C2469	C	0.277088	-0.464398	0.097661
	C2470	C	0.285510	-0.464244	0.089983
	C2471	C	0.263713	-0.375007	0.109923
	C2472	C	0.298904	-0.124884	0.047483
	C2473	C	0.289841	-0.124819	0.039115
	C2474	C	0.285534	-0.035829	0.035160
	C2475	C	0.277111	-0.035739	0.027464
	C2476	C	0.272792	-0.124678	0.023541
	C2477	C	0.277133	-0.213658	0.027434
	C2478	C	0.285553	-0.213776	0.035148
	C2479	C	0.263727	-0.124943	0.015182
	C2480	C	0.326211	-0.125351	0.047435
	C2481	C	0.335246	-0.125263	0.039059
	C2482	C	0.339588	-0.214270	0.035213
	C2483	C	0.348013	-0.214263	0.027536
	C2484	C	0.352320	-0.125405	0.023595
	C2485	C	0.347986	-0.036365	0.027483
	C2486	C	0.339561	-0.036193	0.035149
	C2487	C	0.361367	-0.125269	0.015228
	H2488	H	0.351297	-0.283055	0.024598
	H2489	H	0.336333	-0.283070	0.038237
	H2490	H	0.351354	-0.217313	0.100551
	H2491	H	0.336465	-0.216994	0.086822
	H2492	H	0.312436	-0.375478	0.045373
	H2493	H	0.312729	-0.125573	0.079778
	H2494	H	0.250097	-0.125148	0.107832
	H2495	H	0.375172	-0.375145	0.017245
	H2496	H	0.288825	-0.282466	0.038118
	H2497	H	0.273896	-0.282721	0.024443
	H2498	H	0.273889	-0.216903	0.100718
	H2499	H	0.288756	-0.216839	0.086893
	H2500	H	0.273860	0.033255	0.024459
	H2501	H	0.288797	0.033090	0.038112
	H2502	H	0.288717	-0.533536	0.086983
	H2503	H	0.273834	-0.533444	0.100688
	H2504	H	0.336243	-0.532866	0.087159
	H2505	H	0.351167	-0.533222	0.100847
	H2506	H	0.336284	0.032794	0.038146
	H2507	H	0.351241	0.032580	0.024464
	Al2508	Al	0.312568	0.000063	0.062619
	Al2509	Al	0.312589	0.250003	0.062594
	Al2510	Al	0.250051	0.250260	0.000023
	Al2511	Al	0.250066	0.000003	0.000041
	O2512	O	0.322664	0.040704	0.074605
	O2513	O	0.312570	0.124982	0.054379
	O2514	O	0.312587	0.375057	0.070764
	O2515	O	0.364913	0.040682	0.113317
	O2516	O	0.302476	0.040790	0.074519
	O2517	O	0.260125	0.040851	0.113052
	O2518	O	0.302502	0.208990	0.074522
	O2519	O	0.302463	0.290523	0.050664
	O2520	O	0.260197	0.290478	0.011867
	O2521	O	0.322684	0.209053	0.074519
	O2522	O	0.322676	0.291077	0.050617
	O2523	O	0.364918	0.290779	0.011954
	O2524	O	0.260151	0.209088	0.113172
	O2525	O	0.302464	0.458571	0.050701
	O2526	O	0.260133	0.458430	0.012025
	O2527	O	0.364954	0.459150	0.011983
	O2528	O	0.322685	0.459343	0.050651
	O2529	O	0.364984	0.208779	0.113150
	O2530	O	0.250046	0.374977	0.116829
	O2531	O	0.374962	0.125039	0.008213
	C2532	C	0.348051	0.213928	0.097676
	C2533	C	0.352342	0.124826	0.101633
	C2534	C	0.347987	0.035646	0.097800
	C2535	C	0.339559	0.035845	0.090142
	C2536	C	0.335276	0.124908	0.086153
	C2537	C	0.339614	0.214055	0.090026
	C2538	C	0.326239	0.124848	0.077755
	C2539	C	0.361379	0.124635	0.110039
	C2540	C	0.298893	0.124843	0.077688
	C2541	C	0.289836	0.124780	0.086052
	C2542	C	0.285500	0.213869	0.089938
	C2543	C	0.277084	0.213821	0.097614
	C2544	C	0.272762	0.124795	0.101562
	C2545	C	0.277098	0.035434	0.097680
	C2546	C	0.285531	0.035557	0.090017
	C2547	C	0.263695	0.125040	0.109932
	C2548	C	0.298898	0.374503	0.047472
	C2549	C	0.289849	0.374749	0.039095
	C2550	C	0.285506	0.463306	0.035164
	C2551	C	0.277080	0.463008	0.027476
	C2552	C	0.272785	0.374147	0.023542
	C2553	C	0.277124	0.285351	0.027496
	C2554	C	0.285534	0.285822	0.035200
	C2555	C	0.263736	0.374424	0.015166
	C2556	C	0.326258	0.375089	0.047439
	C2557	C	0.335315	0.375073	0.039094
	C2558	C	0.339617	0.285902	0.035150
	C2559	C	0.348028	0.285950	0.027474
	C2560	C	0.352350	0.375030	0.023565
	C2561	C	0.348070	0.464184	0.027542
	C2562	C	0.339655	0.464223	0.035204
	C2563	C	0.361357	0.375158	0.015181
	H2564	H	0.351267	0.216951	0.024436
	H2565	H	0.336339	0.217192	0.038131
	H2566	H	0.351310	0.282806	0.100698
	H2567	H	0.336377	0.283149	0.086977
	H2568	H	0.312480	0.124839	0.045391
	H2569	H	0.312704	0.374932	0.079776
	H2570	H	0.250051	0.375215	0.107915
	H2571	H	0.374977	0.125012	0.017242
	H2572	H	0.288761	0.216913	0.038257
	H2573	H	0.273884	0.216387	0.024537
	H2574	H	0.273827	0.283053	0.100632
	H2575	H	0.288726	0.283163	0.086870
	H2576	H	0.273820	0.531858	0.024441
	H2577	H	0.288740	0.532441	0.038158
	H2578	H	0.288805	-0.033543	0.087019
	H2579	H	0.273892	-0.033801	0.100740
	H2580	H	0.336315	-0.033184	0.087161
	H2581	H	0.351182	-0.033208	0.100887
	H2582	H	0.336423	0.533074	0.038259
	H2583	H	0.351342	0.533486	0.024513
	Al2584	Al	0.312539	-0.500177	0.187583
	Al2585	Al	0.312531	-0.249962	0.187529
	Al2586	Al	0.250024	-0.250202	0.125008
	Al2587	Al	0.250005	-0.500086	0.125047
	O2588	O	0.322632	-0.458817	0.199475
	O2589	O	0.312503	-0.375172	0.179390
	O2590	O	0.312465	-0.124942	0.195786
	O2591	O	0.364937	-0.458942	0.238074
	O2592	O	0.302379	-0.459429	0.199487
	O2593	O	0.260162	-0.459477	0.238183
	O2594	O	0.302400	-0.291204	0.199418
	O2595	O	0.302394	-0.209129	0.175647
	O2596	O	0.260081	-0.209064	0.136959
	O2597	O	0.322676	-0.290709	0.199421
	O2598	O	0.322588	-0.208832	0.175548
	O2599	O	0.364877	-0.208953	0.137040
	O2600	O	0.260150	-0.291414	0.238221
	O2601	O	0.302371	-0.041113	0.175653
	O2602	O	0.260117	-0.041145	0.136975
	O2603	O	0.364968	-0.040882	0.137194
	O2604	O	0.322573	-0.040465	0.175610
	O2605	O	0.364912	-0.290742	0.238130
	O2606	O	0.249980	-0.125177	0.241826
	O2607	O	0.374983	-0.375001	0.133376
	C2608	C	0.348009	-0.285722	0.222572
	C2609	C	0.352297	-0.374787	0.226600
	C2610	C	0.347926	-0.464130	0.222817
	C2611	C	0.339512	-0.464268	0.215139
	C2612	C	0.335238	-0.375122	0.211054
	C2613	C	0.339601	-0.285898	0.214871
	C2614	C	0.326230	-0.374702	0.202632
	C2615	C	0.361337	-0.374664	0.234942
	C2616	C	0.298819	-0.375246	0.202634
	C2617	C	0.289761	-0.375106	0.210974
	C2618	C	0.285445	-0.286015	0.214911
	C2619	C	0.277048	-0.286067	0.222653
	C2620	C	0.272744	-0.375153	0.226571
	C2621	C	0.277036	-0.464264	0.222626
	C2622	C	0.285446	-0.464291	0.214904
	C2623	C	0.263729	-0.375393	0.235031
	C2624	C	0.298827	-0.125162	0.172403
	C2625	C	0.289799	-0.125406	0.164008
	C2626	C	0.285471	-0.036563	0.160103
	C2627	C	0.277037	-0.036410	0.152421
	C2628	C	0.272738	-0.125355	0.148483
	C2629	C	0.277057	-0.214192	0.152415
	C2630	C	0.285481	-0.214233	0.160103
	C2631	C	0.263673	-0.125254	0.140166
	C2632	C	0.326149	-0.124580	0.172411
	C2633	C	0.335217	-0.124582	0.164107
	C2634	C	0.339477	-0.213793	0.160124
	C2635	C	0.347923	-0.213857	0.152489
	C2636	C	0.352273	-0.124640	0.148647
	C2637	C	0.347994	-0.035582	0.152616
	C2638	C	0.339556	-0.035448	0.160247
	C2639	C	0.361357	-0.124869	0.140323
	H2640	H	0.351172	-0.282943	0.149456
	H2641	H	0.336191	-0.282711	0.163065
	H2642	H	0.351312	-0.216726	0.225499
	H2643	H	0.336379	-0.216750	0.211759
	H2644	H	0.312459	-0.375164	0.170393
	H2645	H	0.312501	-0.125098	0.204776
	H2646	H	0.249834	-0.124544	0.232802
	H2647	H	0.374808	-0.375256	0.142369
	H2648	H	0.288746	-0.283285	0.163122
	H2649	H	0.273816	-0.283092	0.149461
	H2650	H	0.273844	-0.217158	0.225763
	H2651	H	0.288667	-0.216788	0.211970
	H2652	H	0.273748	0.032598	0.149430
	H2653	H	0.288720	0.032321	0.163112
	H2654	H	0.288706	-0.533382	0.211877
	H2655	H	0.273821	-0.533539	0.225687
	H2656	H	0.336218	-0.533365	0.212240
	H2657	H	0.351142	-0.532991	0.225929
	H2658	H	0.336293	0.033752	0.163242
	H2659	H	0.351271	0.033386	0.149657
	Al2660	Al	0.312454	-0.000080	0.187557
	Al2661	Al	0.312516	0.249800	0.187536
	Al2662	Al	0.250009	0.249747	0.125067
	Al2663	Al	0.250026	-0.000317	0.124983
	O2664	O	0.322564	0.040804	0.199524
	O2665	O	0.312526	0.124965	0.179394
	O2666	O	0.312603	0.374848	0.195740
	O2667	O	0.364888	0.040660	0.238111
	O2668	O	0.302341	0.040878	0.199488
	O2669	O	0.260111	0.041176	0.238207
	O2670	O	0.302395	0.209255	0.199478
	O2671	O	0.302419	0.290745	0.175592
	O2672	O	0.260078	0.290950	0.137024
	O2673	O	0.322652	0.208970	0.199418
	O2674	O	0.322614	0.290712	0.175557
	O2675	O	0.364900	0.290494	0.137020
	O2676	O	0.260143	0.209374	0.238250
	O2677	O	0.302411	0.459026	0.175671
	O2678	O	0.260130	0.459051	0.136982
	O2679	O	0.364976	0.458502	0.137132
	O2680	O	0.322615	0.458896	0.175641
	O2681	O	0.364945	0.208566	0.238064
	O2682	O	0.250000	0.375137	0.241899
	O2683	O	0.375098	0.124860	0.133357
	C2684	C	0.347987	0.213966	0.222555
	C2685	C	0.352271	0.124812	0.226555
	C2686	C	0.347883	0.035949	0.222770
	C2687	C	0.339483	0.035877	0.215057
	C2688	C	0.335226	0.124769	0.210997
	C2689	C	0.339577	0.213777	0.214863
	C2690	C	0.326201	0.124850	0.202585
	C2691	C	0.361332	0.124748	0.234885
	C2692	C	0.298767	0.125205	0.202654
	C2693	C	0.289737	0.125179	0.211022
	C2694	C	0.285411	0.213999	0.214940
	C2695	C	0.277021	0.214170	0.222674
	C2696	C	0.272699	0.125039	0.226593
	C2697	C	0.277042	0.036228	0.222704
	C2698	C	0.285428	0.036273	0.214977
	C2699	C	0.263674	0.125098	0.235030
	C2700	C	0.298851	0.375020	0.172441
	C2701	C	0.289812	0.375010	0.164073
	C2702	C	0.285503	0.464013	0.160149
	C2703	C	0.277065	0.464037	0.152466
	C2704	C	0.272734	0.375030	0.148565
	C2705	C	0.277085	0.286126	0.152419
	C2706	C	0.285522	0.285964	0.160106
	C2707	C	0.263675	0.375174	0.140194
	C2708	C	0.326189	0.374854	0.172407
	C2709	C	0.335236	0.374978	0.164104
	C2710	C	0.339541	0.285961	0.160172
	C2711	C	0.347978	0.285840	0.152503
	C2712	C	0.352310	0.374665	0.148609
	C2713	C	0.348032	0.463698	0.152585
	C2714	C	0.339583	0.463885	0.160248
	C2715	C	0.361345	0.374670	0.140270
	H2716	H	0.351212	0.216876	0.149511
	H2717	H	0.336252	0.217071	0.163115
	H2718	H	0.351264	0.283066	0.225464
	H2719	H	0.336366	0.282469	0.211734
	H2720	H	0.312643	0.125326	0.170383
	H2721	H	0.312612	0.374693	0.204724
	H2722	H	0.249991	0.375558	0.232921
	H2723	H	0.375147	0.124360	0.142379
	H2724	H	0.288776	0.217070	0.163075
	H2725	H	0.273857	0.217129	0.149346
	H2726	H	0.273767	0.283063	0.225694
	H2727	H	0.288668	0.282759	0.211903
	H2728	H	0.273837	0.532923	0.149444
	H2729	H	0.288760	0.532904	0.163122
	H2730	H	0.288669	-0.032669	0.211998
	H2731	H	0.273793	-0.032647	0.225768
	H2732	H	0.336224	-0.033160	0.212101
	H2733	H	0.351134	-0.032988	0.225869
	H2734	H	0.336324	0.532815	0.163224
	H2735	H	0.351307	0.532664	0.149591
	Al2736	Al	0.312501	-0.500218	0.312478
	Al2737	Al	0.312484	-0.250341	0.312507
	Al2738	Al	0.250046	-0.250068	0.250059
	Al2739	Al	0.250017	-0.499685	0.250082
	O2740	O	0.322628	-0.459061	0.324395
	O2741	O	0.312552	-0.375119	0.304311
	O2742	O	0.312473	-0.125325	0.320721
	O2743	O	0.364887	-0.459002	0.363041
	O2744	O	0.302409	-0.459369	0.324442
	O2745	O	0.260066	-0.459113	0.363083
	O2746	O	0.302403	-0.291074	0.324412
	O2747	O	0.302382	-0.209178	0.300639
	O2748	O	0.260161	-0.209125	0.261937
	O2749	O	0.322606	-0.291030	0.324399
	O2750	O	0.322612	-0.209265	0.300547
	O2751	O	0.364906	-0.209275	0.261849
	O2752	O	0.260086	-0.290864	0.363063
	O2753	O	0.302401	-0.041154	0.300557
	O2754	O	0.260111	-0.040914	0.261929
	O2755	O	0.364981	-0.041221	0.261962
	O2756	O	0.322646	-0.040985	0.300620
	O2757	O	0.364915	-0.290956	0.363030
	O2758	O	0.250028	-0.124822	0.366764
	O2759	O	0.375028	-0.375073	0.258223
	C2760	C	0.347992	-0.285720	0.347502
	C2761	C	0.352289	-0.374843	0.351485
	C2762	C	0.347949	-0.463878	0.347580
	C2763	C	0.339537	-0.464044	0.339877
	C2764	C	0.335221	-0.374965	0.335963
	C2765	C	0.339587	-0.285765	0.339801
	C2766	C	0.326181	-0.375050	0.327576
	C2767	C	0.361325	-0.375090	0.359854
	C2768	C	0.298816	-0.375182	0.327631
	C2769	C	0.289737	-0.375107	0.335937
	C2770	C	0.285440	-0.286026	0.339872
	C2771	C	0.277032	-0.285931	0.347585
	C2772	C	0.272693	-0.374962	0.351490
	C2773	C	0.276978	-0.464056	0.347525
	C2774	C	0.285404	-0.464247	0.339830
	C2775	C	0.263624	-0.375038	0.359868
	C2776	C	0.298831	-0.125069	0.297405
	C2777	C	0.289790	-0.125100	0.289031
	C2778	C	0.285433	-0.035914	0.285224
	C2779	C	0.277034	-0.035899	0.277536
	C2780	C	0.272751	-0.124745	0.273478
	C2781	C	0.277104	-0.213867	0.277318
	C2782	C	0.285505	-0.213981	0.285010
	C2783	C	0.263703	-0.124907	0.265135
	C2784	C	0.326196	-0.125021	0.297367
	C2785	C	0.335217	-0.124929	0.288965
	C2786	C	0.339547	-0.214139	0.285000
	C2787	C	0.347961	-0.214164	0.277312
	C2788	C	0.352288	-0.125011	0.273393
	C2789	C	0.347983	-0.035578	0.277363
	C2790	C	0.339572	-0.035735	0.285060
	C2791	C	0.361343	-0.125182	0.265085
	H2792	H	0.351239	-0.283272	0.274312
	H2793	H	0.336271	-0.283352	0.287979
	H2794	H	0.351253	-0.216470	0.350447
	H2795	H	0.336348	-0.216575	0.336731
	H2796	H	0.312539	-0.375371	0.295281
	H2797	H	0.312538	-0.124876	0.329745
	H2798	H	0.250066	-0.124637	0.357793
	H2799	H	0.375061	-0.374640	0.267158
	H2800	H	0.288813	-0.282955	0.287919
	H2801	H	0.273878	-0.282900	0.274243
	H2802	H	0.273784	-0.216798	0.350618
	H2803	H	0.288705	-0.216932	0.336911
	H2804	H	0.273743	0.033073	0.274638
	H2805	H	0.288682	0.032853	0.288328
	H2806	H	0.288654	-0.533375	0.336827
	H2807	H	0.273695	-0.533244	0.350486
	H2808	H	0.336286	-0.533303	0.336911
	H2809	H	0.351191	-0.533075	0.350612
	H2810	H	0.336324	0.033285	0.288116
	H2811	H	0.351247	0.033526	0.274416
	Al2812	Al	0.312509	-0.000189	0.312469
	Al2813	Al	0.312528	0.249607	0.312492
	Al2814	Al	0.249979	0.250306	0.250132
	Al2815	Al	0.249978	0.000192	0.250041
	O2816	O	0.322592	0.040972	0.324413
	O2817	O	0.312529	0.124817	0.304254
	O2818	O	0.312552	0.374714	0.320677
	O2819	O	0.364912	0.041067	0.363057
	O2820	O	0.302385	0.040941	0.324386
	O2821	O	0.260104	0.041217	0.363105
	O2822	O	0.302423	0.209130	0.324456
	O2823	O	0.302465	0.290933	0.300597
	O2824	O	0.260123	0.290810	0.261926
	O2825	O	0.322580	0.209132	0.324445
	O2826	O	0.322684	0.290384	0.300565
	O2827	O	0.364877	0.290986	0.261886
	O2828	O	0.260186	0.209625	0.363124
	O2829	O	0.302354	0.459186	0.300586
	O2830	O	0.260129	0.459084	0.262006
	O2831	O	0.364911	0.459269	0.261903
	O2832	O	0.322624	0.458646	0.300572
	O2833	O	0.364903	0.209205	0.363046
	O2834	O	0.250026	0.375258	0.366796
	O2835	O	0.375010	0.124817	0.258225
	C2836	C	0.347963	0.213903	0.347565
	C2837	C	0.352284	0.124922	0.351457
	C2838	C	0.347950	0.036098	0.347573
	C2839	C	0.339542	0.036238	0.339856
	C2840	C	0.335215	0.125004	0.335945
	C2841	C	0.339540	0.213911	0.339860
	C2842	C	0.326172	0.125012	0.327602
	C2843	C	0.361315	0.125174	0.359870
	C2844	C	0.298835	0.125077	0.327609
	C2845	C	0.289744	0.125049	0.335937
	C2846	C	0.285429	0.214250	0.339846
	C2847	C	0.277019	0.214332	0.347551
	C2848	C	0.272716	0.125031	0.351495
	C2849	C	0.277009	0.035711	0.347549
	C2850	C	0.285425	0.035796	0.339853
	C2851	C	0.263682	0.125336	0.359922
	C2852	C	0.298845	0.374861	0.297393
	C2853	C	0.289799	0.374402	0.289031
	C2854	C	0.285436	0.463500	0.285211
	C2855	C	0.277037	0.463639	0.277490
	C2856	C	0.272778	0.374565	0.273449
	C2857	C	0.277128	0.285318	0.277297
	C2858	C	0.285545	0.285263	0.285002
	C2859	C	0.263717	0.374932	0.265158
	C2860	C	0.326210	0.374904	0.297389
	C2861	C	0.335258	0.375070	0.289014
	C2862	C	0.339548	0.286105	0.285011
	C2863	C	0.347942	0.286069	0.277314
	C2864	C	0.352276	0.375312	0.273430
	C2865	C	0.347985	0.464505	0.277401
	C2866	C	0.339568	0.464555	0.285098
	C2867	C	0.361319	0.374945	0.265080
	H2868	H	0.351177	0.216916	0.274272
	H2869	H	0.336250	0.217032	0.287967
	H2870	H	0.351209	0.282857	0.350621
	H2871	H	0.336304	0.283037	0.336896
	H2872	H	0.312585	0.124401	0.295190
	H2873	H	0.312649	0.375235	0.329614
	H2874	H	0.250184	0.375138	0.357802
	H2875	H	0.375159	0.125015	0.267212
	H2876	H	0.288829	0.215987	0.287939
	H2877	H	0.273903	0.216296	0.274196
	H2878	H	0.273756	0.283400	0.350517
	H2879	H	0.288701	0.283319	0.336840
	H2880	H	0.273744	0.532839	0.274645
	H2881	H	0.288651	0.532528	0.288288
	H2882	H	0.288668	-0.033331	0.336912
	H2883	H	0.273743	-0.033350	0.350581
	H2884	H	0.336291	-0.033015	0.336835
	H2885	H	0.351182	-0.032949	0.350583
	H2886	H	0.336315	0.533581	0.288125
	H2887	H	0.351257	0.533525	0.274399
	Al2888	Al	0.312521	-0.499789	0.437479
	Al2889	Al	0.312516	-0.249889	0.437472
	Al2890	Al	0.249990	-0.250062	0.374969
	Al2891	Al	0.249939	-0.500015	0.374986
	O2892	O	0.322571	-0.459148	0.449476
	O2893	O	0.312574	-0.374921	0.429263
	O2894	O	0.312476	-0.124799	0.445665
	O2895	O	0.364895	-0.459176	0.488042
	O2896	O	0.302391	-0.459086	0.449394
	O2897	O	0.260118	-0.459161	0.488087
	O2898	O	0.302404	-0.291041	0.449438
	O2899	O	0.302397	-0.209187	0.425560
	O2900	O	0.260096	-0.208812	0.386872
	O2901	O	0.322659	-0.290865	0.449330
	O2902	O	0.322573	-0.208978	0.425472
	O2903	O	0.364874	-0.209265	0.386886
	O2904	O	0.260065	-0.291033	0.488046
	O2905	O	0.302419	-0.040976	0.425499
	O2906	O	0.260096	-0.040623	0.386882
	O2907	O	0.364890	-0.040937	0.386891
	O2908	O	0.322598	-0.040956	0.425542
	O2909	O	0.364886	-0.291213	0.488048
	O2910	O	0.249944	-0.125158	0.491775
	O2911	O	0.375023	-0.374949	0.383173
	C2912	C	0.347968	-0.286073	0.472547
	C2913	C	0.352240	-0.375103	0.476559
	C2914	C	0.347932	-0.464192	0.472646
	C2915	C	0.339504	-0.464050	0.464976
	C2916	C	0.335186	-0.375088	0.461049
	C2917	C	0.339549	-0.286004	0.464877
	C2918	C	0.326163	-0.374974	0.452659
	C2919	C	0.361316	-0.375339	0.484914
	C2920	C	0.298830	-0.375050	0.452591
	C2921	C	0.289754	-0.375140	0.460954
	C2922	C	0.285407	-0.286089	0.464842
	C2923	C	0.276987	-0.286103	0.472511
	C2924	C	0.272698	-0.375100	0.476489
	C2925	C	0.277035	-0.464164	0.472585
	C2926	C	0.285464	-0.464135	0.464923
	C2927	C	0.263647	-0.375076	0.484835
	C2928	C	0.298824	-0.125145	0.422348
	C2929	C	0.289761	-0.125315	0.413992
	C2930	C	0.285483	-0.036308	0.410014
	C2931	C	0.277055	-0.036361	0.402350
	C2932	C	0.272704	-0.125172	0.398474
	C2933	C	0.277020	-0.214208	0.402393
	C2934	C	0.285435	-0.214389	0.410076
	C2935	C	0.263650	-0.124841	0.390102
	C2936	C	0.326180	-0.125033	0.422373
	C2937	C	0.335212	-0.124643	0.413948
	C2938	C	0.339463	-0.213847	0.409891
	C2939	C	0.347884	-0.213987	0.402206
	C2940	C	0.352279	-0.124851	0.398426
	C2941	C	0.348007	-0.035797	0.402473
	C2942	C	0.339594	-0.035624	0.410155
	C2943	C	0.361317	-0.125141	0.390065
	H2944	H	0.351099	-0.283042	0.399076
	H2945	H	0.336180	-0.282699	0.412921
	H2946	H	0.351245	-0.216905	0.475510
	H2947	H	0.336317	-0.217097	0.461821
	H2948	H	0.312550	-0.375036	0.420251
	H2949	H	0.312316	-0.124327	0.454657
	H2950	H	0.249902	-0.125377	0.482737
	H2951	H	0.375054	-0.375119	0.392157
	H2952	H	0.288694	-0.283317	0.413076
	H2953	H	0.273758	-0.283057	0.399375
	H2954	H	0.273696	-0.217010	0.475436
	H2955	H	0.288614	-0.216991	0.461754
	H2956	H	0.273809	0.032631	0.399334
	H2957	H	0.288746	0.032359	0.413022
	H2958	H	0.288729	-0.533063	0.461897
	H2959	H	0.273759	-0.533193	0.475582
	H2960	H	0.336232	-0.533193	0.462028
	H2961	H	0.351183	-0.533093	0.475667
	H2962	H	0.336427	0.033196	0.413321
	H2963	H	0.351285	0.033258	0.399516
	Al2964	Al	0.312517	0.000078	0.437479
	Al2965	Al	0.312529	0.249945	0.437434
	Al2966	Al	0.249977	0.250126	0.374958
	Al2967	Al	0.249968	-0.000043	0.374991
	O2968	O	0.322619	0.040622	0.449468
	O2969	O	0.312510	0.124954	0.429265
	O2970	O	0.312479	0.375118	0.445632
	O2971	O	0.364851	0.040841	0.488080
	O2972	O	0.302396	0.041157	0.449428
	O2973	O	0.260115	0.040772	0.488102
	O2974	O	0.302357	0.209430	0.449342
	O2975	O	0.302412	0.291103	0.425473
	O2976	O	0.260075	0.291333	0.386888
	O2977	O	0.322559	0.208961	0.449476
	O2978	O	0.322631	0.290626	0.425541
	O2979	O	0.364881	0.290557	0.386827
	O2980	O	0.260064	0.208932	0.488013
	O2981	O	0.302393	0.459203	0.425503
	O2982	O	0.260103	0.459520	0.386869
	O2983	O	0.364903	0.459010	0.386890
	O2984	O	0.322638	0.458956	0.425574
	O2985	O	0.364902	0.209074	0.488001
	O2986	O	0.249989	0.374978	0.491809
	O2987	O	0.375020	0.124958	0.383181
	C2988	C	0.347928	0.214473	0.472600
	C2989	C	0.352274	0.125252	0.476480
	C2990	C	0.347945	0.036053	0.472605
	C2991	C	0.339532	0.036093	0.464944
	C2992	C	0.335216	0.125106	0.461017
	C2993	C	0.339506	0.214405	0.464925
	C2994	C	0.326175	0.124976	0.452677
	C2995	C	0.361317	0.125179	0.484881
	C2996	C	0.298799	0.125533	0.452540
	C2997	C	0.289720	0.125314	0.460905
	C2998	C	0.285402	0.214335	0.464821
	C2999	C	0.276962	0.214263	0.472487
	C3000	C	0.272690	0.124952	0.476409
	C3001	C	0.277013	0.035922	0.472500
	C3002	C	0.285446	0.036051	0.464831
	C3003	C	0.263636	0.124912	0.484815
	C3004	C	0.298843	0.375236	0.422297
	C3005	C	0.289748	0.375041	0.414012
	C3006	C	0.285416	0.464341	0.410075
	C3007	C	0.277001	0.464280	0.402383
	C3008	C	0.272693	0.375126	0.398435
	C3009	C	0.276985	0.285771	0.402403
	C3010	C	0.285407	0.285788	0.410096
	C3011	C	0.263690	0.375422	0.390043
	C3012	C	0.326229	0.374859	0.422389
	C3013	C	0.335258	0.374782	0.413961
	C3014	C	0.339521	0.285749	0.409950
	C3015	C	0.347955	0.285912	0.402263
	C3016	C	0.352312	0.374956	0.398459
	C3017	C	0.348009	0.464164	0.402397
	C3018	C	0.339587	0.464078	0.410096
	C3019	C	0.361336	0.374884	0.390044
	H3020	H	0.351153	0.216863	0.399174
	H3021	H	0.336264	0.216444	0.412909
	H3022	H	0.351173	0.283437	0.475670
	H3023	H	0.336215	0.283739	0.461938
	H3024	H	0.312413	0.124647	0.420303
	H3025	H	0.312527	0.375439	0.454623
	H3026	H	0.249890	0.374770	0.482798
	H3027	H	0.375025	0.125161	0.392165
	H3028	H	0.288720	0.216800	0.412990
	H3029	H	0.273752	0.216913	0.399317
	H3030	H	0.273700	0.283348	0.475489
	H3031	H	0.288654	0.283520	0.461824
	H3032	H	0.273753	0.533392	0.399355
	H3033	H	0.288688	0.533367	0.413082
	H3034	H	0.288734	-0.033084	0.461819
	H3035	H	0.273791	-0.033190	0.475492
	H3036	H	0.336262	-0.033130	0.461972
	H3037	H	0.351211	-0.033163	0.475649
	H3038	H	0.336344	0.533015	0.413116
	H3039	H	0.351243	0.533144	0.399419
	Al3040	Al	0.312455	-0.499883	0.562543
	Al3041	Al	0.312414	-0.250283	0.562522
	Al3042	Al	0.249961	-0.250133	0.499955
	Al3043	Al	0.249999	-0.499981	0.499994
	O3044	O	0.322539	-0.459089	0.574563
	O3045	O	0.312507	-0.375031	0.554343
	O3046	O	0.312438	-0.125364	0.570725
	O3047	O	0.364848	-0.459209	0.613108
	O3048	O	0.302316	-0.459556	0.574440
	O3049	O	0.260059	-0.459363	0.613192
	O3050	O	0.302300	-0.291509	0.574465
	O3051	O	0.302383	-0.208976	0.550575
	O3052	O	0.260104	-0.209197	0.511853
	O3053	O	0.322533	-0.291036	0.574472
	O3054	O	0.322547	-0.208884	0.550589
	O3055	O	0.364852	-0.209118	0.512047
	O3056	O	0.260046	-0.291297	0.613190
	O3057	O	0.302355	-0.040902	0.550621
	O3058	O	0.260035	-0.040927	0.511945
	O3059	O	0.364848	-0.041000	0.511951
	O3060	O	0.322540	-0.040664	0.550597
	O3061	O	0.364884	-0.290800	0.613087
	O3062	O	0.250013	-0.124886	0.616900
	O3063	O	0.374905	-0.375015	0.508244
	C3064	C	0.347928	-0.285882	0.597597
	C3065	C	0.352243	-0.374862	0.601536
	C3066	C	0.347899	-0.463994	0.597688
	C3067	C	0.339467	-0.464001	0.590019
	C3068	C	0.335171	-0.375071	0.586037
	C3069	C	0.339499	-0.285964	0.589916
	C3070	C	0.326120	-0.374896	0.577681
	C3071	C	0.361310	-0.374913	0.609876
	C3072	C	0.298730	-0.375550	0.577637
	C3073	C	0.289704	-0.375162	0.586030
	C3074	C	0.285410	-0.286020	0.589979
	C3075	C	0.276991	-0.286108	0.597705
	C3076	C	0.272662	-0.375207	0.601579
	C3077	C	0.276964	-0.464268	0.597619
	C3078	C	0.285387	-0.464057	0.589917
	C3079	C	0.263615	-0.375048	0.609965
	C3080	C	0.298791	-0.124911	0.547397
	C3081	C	0.289746	-0.124903	0.539042
	C3082	C	0.285402	-0.035750	0.535113
	C3083	C	0.276990	-0.035887	0.527415
	C3084	C	0.272685	-0.124928	0.523465
	C3085	C	0.277059	-0.213976	0.527318
	C3086	C	0.285461	-0.213930	0.535009
	C3087	C	0.263639	-0.125078	0.515106
	C3088	C	0.326127	-0.124791	0.547426
	C3089	C	0.335167	-0.124513	0.539061
	C3090	C	0.339492	-0.213488	0.535159
	C3091	C	0.347900	-0.213499	0.527469
	C3092	C	0.352219	-0.124749	0.523519
	C3093	C	0.347905	-0.035800	0.527453
	C3094	C	0.339492	-0.035695	0.535147
	C3095	C	0.361268	-0.124996	0.515185
	H3096	H	0.351152	-0.282263	0.524484
	H3097	H	0.336269	-0.282314	0.538208
	H3098	H	0.351202	-0.216537	0.600555
	H3099	H	0.336250	-0.216895	0.586893
	H3100	H	0.312699	-0.374978	0.545332
	H3101	H	0.312499	-0.125239	0.579642
	H3102	H	0.250050	-0.125207	0.607914
	H3103	H	0.374821	-0.374921	0.517217
	H3104	H	0.288770	-0.283051	0.537927
	H3105	H	0.273851	-0.283026	0.524206
	H3106	H	0.273764	-0.217017	0.600714
	H3107	H	0.288642	-0.216862	0.586997
	H3108	H	0.273704	0.033149	0.524382
	H3109	H	0.288661	0.033515	0.538131
	H3110	H	0.288579	-0.533566	0.586839
	H3111	H	0.273703	-0.533282	0.600577
	H3112	H	0.336204	-0.533016	0.587069
	H3113	H	0.351152	-0.533028	0.600682
	H3114	H	0.336239	0.033123	0.538194
	H3115	H	0.351161	0.033118	0.524409
	Al3116	Al	0.312432	0.000085	0.562570
	Al3117	Al	0.312424	0.249921	0.562536
	Al3118	Al	0.249990	0.249862	0.499967
	Al3119	Al	0.249965	-0.000247	0.500020
	O3120	O	0.322527	0.040495	0.574519
	O3121	O	0.312423	0.124962	0.554326
	O3122	O	0.312503	0.375181	0.570759
	O3123	O	0.364848	0.040858	0.613128
	O3124	O	0.302338	0.041118	0.574477
	O3125	O	0.260047	0.040917	0.613184
	O3126	O	0.302300	0.209181	0.574460
	O3127	O	0.302388	0.291234	0.550579
	O3128	O	0.260066	0.290894	0.511897
	O3129	O	0.322514	0.208665	0.574491
	O3130	O	0.322563	0.290509	0.550559
	O3131	O	0.364818	0.290597	0.511901
	O3132	O	0.260083	0.209206	0.613243
	O3133	O	0.302387	0.459559	0.550569
	O3134	O	0.260080	0.459128	0.511972
	O3135	O	0.364857	0.459078	0.511929
	O3136	O	0.322540	0.458686	0.550641
	O3137	O	0.364894	0.208974	0.613035
	O3138	O	0.249928	0.375029	0.616861
	O3139	O	0.374909	0.125007	0.508221
	C3140	C	0.347963	0.213853	0.597539
	C3141	C	0.352252	0.124856	0.601503
	C3142	C	0.347901	0.035861	0.597686
	C3143	C	0.339457	0.035747	0.590030
	C3144	C	0.335160	0.124701	0.586082
	C3145	C	0.339502	0.213722	0.589892
	C3146	C	0.326095	0.124771	0.577715
	C3147	C	0.361305	0.124814	0.609900
	C3148	C	0.298743	0.125204	0.577639
	C3149	C	0.289692	0.124919	0.586018
	C3150	C	0.285390	0.213948	0.589961
	C3151	C	0.276989	0.214042	0.597666
	C3152	C	0.272667	0.125050	0.601602
	C3153	C	0.276965	0.036001	0.597639
	C3154	C	0.285369	0.035989	0.589943
	C3155	C	0.263643	0.125060	0.610015
	C3156	C	0.298823	0.375387	0.547376
	C3157	C	0.289784	0.375357	0.539000
	C3158	C	0.285437	0.464417	0.535096
	C3159	C	0.277012	0.464132	0.527412
	C3160	C	0.272710	0.374978	0.523481
	C3161	C	0.277066	0.285912	0.527364
	C3162	C	0.285484	0.286097	0.535045
	C3163	C	0.263663	0.374957	0.515123
	C3164	C	0.326133	0.374622	0.547409
	C3165	C	0.335162	0.374938	0.538979
	C3166	C	0.339501	0.285916	0.535115
	C3167	C	0.347926	0.285957	0.527425
	C3168	C	0.352220	0.374969	0.523468
	C3169	C	0.347882	0.464005	0.527340
	C3170	C	0.339461	0.464016	0.535033
	C3171	C	0.361261	0.374732	0.515103
	H3172	H	0.351176	0.216713	0.524445
	H3173	H	0.336284	0.216911	0.538187
	H3174	H	0.351212	0.282756	0.600492
	H3175	H	0.336279	0.282689	0.586858
	H3176	H	0.312429	0.125329	0.545391
	H3177	H	0.312576	0.375383	0.579703
	H3178	H	0.249772	0.374578	0.607898
	H3179	H	0.374752	0.125334	0.517214
	H3180	H	0.288771	0.216984	0.538020
	H3181	H	0.273834	0.216834	0.524277
	H3182	H	0.273740	0.282609	0.600714
	H3183	H	0.288628	0.282784	0.586937
	H3184	H	0.273753	0.533409	0.524431
	H3185	H	0.288694	0.533598	0.538129
	H3186	H	0.288632	-0.032889	0.586858
	H3187	H	0.273720	-0.033029	0.600661
	H3188	H	0.336193	-0.033114	0.587123
	H3189	H	0.351107	-0.033039	0.600758
	H3190	H	0.336225	0.532878	0.538011
	H3191	H	0.351116	0.533175	0.524268
	Al3192	Al	0.312457	-0.500159	0.687625
	Al3193	Al	0.312456	-0.249883	0.687544
	Al3194	Al	0.249906	-0.249833	0.625097
	Al3195	Al	0.249984	-0.499804	0.625067
	O3196	O	0.322566	-0.459001	0.699512
	O3197	O	0.312470	-0.375071	0.679424
	O3198	O	0.312468	-0.125012	0.695755
	O3199	O	0.364935	-0.458754	0.738103
	O3200	O	0.302330	-0.459075	0.699505
	O3201	O	0.260082	-0.459517	0.738174
	O3202	O	0.302314	-0.290908	0.699436
	O3203	O	0.302401	-0.209325	0.675571
	O3204	O	0.260070	-0.209279	0.637023
	O3205	O	0.322593	-0.290708	0.699464
	O3206	O	0.322546	-0.209212	0.675671
	O3207	O	0.364873	-0.209169	0.637020
	O3208	O	0.260105	-0.291165	0.738250
	O3209	O	0.302358	-0.040988	0.675576
	O3210	O	0.260058	-0.041153	0.636994
	O3211	O	0.364816	-0.041036	0.637007
	O3212	O	0.322561	-0.040879	0.675641
	O3213	O	0.364895	-0.290651	0.738087
	O3214	O	0.249998	-0.124975	0.741875
	O3215	O	0.374905	-0.374864	0.633277
	C3216	C	0.347967	-0.285881	0.722606
	C3217	C	0.352263	-0.374845	0.726573
	C3218	C	0.347938	-0.463842	0.722625
	C3219	C	0.339497	-0.463892	0.714986
	C3220	C	0.335204	-0.374862	0.711034
	C3221	C	0.339534	-0.285896	0.714948
	C3222	C	0.326139	-0.374941	0.702684
	C3223	C	0.361345	-0.374770	0.734880
	C3224	C	0.298755	-0.374788	0.702638
	C3225	C	0.289692	-0.374692	0.711002
	C3226	C	0.285402	-0.285612	0.714997
	C3227	C	0.277000	-0.285614	0.722718
	C3228	C	0.272676	-0.374914	0.726597
	C3229	C	0.276988	-0.463958	0.722682
	C3230	C	0.285399	-0.463939	0.714961
	C3231	C	0.263640	-0.375309	0.735014
	C3232	C	0.298795	-0.125243	0.672423
	C3233	C	0.289741	-0.125091	0.664021
	C3234	C	0.285405	-0.036184	0.660188
	C3235	C	0.276981	-0.036149	0.652496
	C3236	C	0.272692	-0.125079	0.648568
	C3237	C	0.277021	-0.214037	0.652417
	C3238	C	0.285451	-0.214030	0.660094
	C3239	C	0.263624	-0.125104	0.640162
	C3240	C	0.326113	-0.125048	0.672441
	C3241	C	0.335152	-0.124978	0.664083
	C3242	C	0.339475	-0.214121	0.660166
	C3243	C	0.347903	-0.214466	0.652491
	C3244	C	0.352223	-0.125377	0.648599
	C3245	C	0.347899	-0.036155	0.652515
	C3246	C	0.339476	-0.036004	0.660212
	C3247	C	0.361267	-0.125255	0.640190
	H3248	H	0.351133	-0.283311	0.649450
	H3249	H	0.336206	-0.283255	0.663144
	H3250	H	0.351220	-0.216828	0.725569
	H3251	H	0.336275	-0.216914	0.711909
	H3252	H	0.312452	-0.374890	0.670433
	H3253	H	0.312604	-0.125170	0.704765
	H3254	H	0.250067	-0.124721	0.732838
	H3255	H	0.374796	-0.375001	0.642217
	H3256	H	0.288713	-0.282735	0.663052
	H3257	H	0.273794	-0.283064	0.649388
	H3258	H	0.273791	-0.216694	0.725789
	H3259	H	0.288674	-0.216617	0.712036
	H3260	H	0.273736	0.032721	0.649545
	H3261	H	0.288606	0.032839	0.663266
	H3262	H	0.288639	-0.533091	0.711963
	H3263	H	0.273734	-0.532777	0.725731
	H3264	H	0.336232	-0.532964	0.712025
	H3265	H	0.351169	-0.532688	0.725645
	H3266	H	0.336233	0.033000	0.663186
	H3267	H	0.351111	0.032866	0.649450
	Al3268	Al	0.312475	-0.000005	0.687568
	Al3269	Al	0.312436	0.250033	0.687594
	Al3270	Al	0.249952	0.250251	0.625150
	Al3271	Al	0.249956	-0.000007	0.625045
	O3272	O	0.322542	0.040926	0.699544
	O3273	O	0.312488	0.124961	0.679388
	O3274	O	0.312448	0.374908	0.695820
	O3275	O	0.364926	0.040617	0.738114
	O3276	O	0.302323	0.040886	0.699445
	O3277	O	0.260118	0.040873	0.738224
	O3278	O	0.302306	0.209331	0.699443
	O3279	O	0.302396	0.290995	0.675619
	O3280	O	0.260062	0.290784	0.636996
	O3281	O	0.322578	0.209163	0.699471
	O3282	O	0.322566	0.291218	0.675655
	O3283	O	0.364803	0.291154	0.636949
	O3284	O	0.260124	0.209077	0.738231
	O3285	O	0.302370	0.459163	0.675695
	O3286	O	0.260085	0.458875	0.636963
	O3287	O	0.364809	0.459169	0.636976
	O3288	O	0.322548	0.458990	0.675730
	O3289	O	0.364905	0.208939	0.738057
	O3290	O	0.249989	0.374882	0.741920
	O3291	O	0.374883	0.125046	0.633262
	C3292	C	0.348000	0.214258	0.722544
	C3293	C	0.352301	0.125014	0.726492
	C3294	C	0.347908	0.035985	0.722661
	C3295	C	0.339485	0.035822	0.714998
	C3296	C	0.335242	0.125126	0.710945
	C3297	C	0.339586	0.214206	0.714861
	C3298	C	0.326136	0.125086	0.702675
	C3299	C	0.361374	0.124918	0.734844
	C3300	C	0.298745	0.124999	0.702642
	C3301	C	0.289728	0.124851	0.711067
	C3302	C	0.285426	0.214029	0.714960
	C3303	C	0.277037	0.213975	0.722701
	C3304	C	0.272739	0.124872	0.726665
	C3305	C	0.277019	0.035753	0.722726
	C3306	C	0.285412	0.035674	0.715003
	C3307	C	0.263686	0.124923	0.735051
	C3308	C	0.298819	0.375068	0.672470
	C3309	C	0.289770	0.375097	0.664096
	C3310	C	0.285442	0.464240	0.660207
	C3311	C	0.277027	0.464278	0.652525
	C3312	C	0.272702	0.375097	0.648592
	C3313	C	0.277065	0.285938	0.652425
	C3314	C	0.285486	0.285915	0.660099
	C3315	C	0.263634	0.374847	0.640173
	C3316	C	0.326125	0.375174	0.672490
	C3317	C	0.335184	0.375349	0.664139
	C3318	C	0.339510	0.286384	0.660212
	C3319	C	0.347930	0.286260	0.652526
	C3320	C	0.352227	0.375075	0.648578
	C3321	C	0.347897	0.464028	0.652471
	C3322	C	0.339473	0.464252	0.660155
	C3323	C	0.361250	0.375306	0.640194
	H3324	H	0.351159	0.217304	0.649498
	H3325	H	0.336267	0.217366	0.663221
	H3326	H	0.351290	0.283630	0.725536
	H3327	H	0.336323	0.283407	0.711861
	H3328	H	0.312698	0.125424	0.670381
	H3329	H	0.312426	0.374754	0.704844
	H3330	H	0.249928	0.375037	0.732871
	H3331	H	0.374797	0.124671	0.642194
	H3332	H	0.288771	0.216686	0.663043
	H3333	H	0.273866	0.216601	0.649346
	H3334	H	0.273752	0.283006	0.725697
	H3335	H	0.288641	0.283341	0.711876
	H3336	H	0.273778	0.533272	0.649508
	H3337	H	0.288693	0.533342	0.663226
	H3338	H	0.288616	-0.033179	0.711966
	H3339	H	0.273770	-0.033363	0.725722
	H3340	H	0.336140	-0.033190	0.712110
	H3341	H	0.351126	-0.033329	0.725770
	H3342	H	0.336233	0.533423	0.663169
	H3343	H	0.351111	0.532901	0.649399
	Al3344	Al	0.312463	-0.499862	0.812511
	Al3345	Al	0.312504	-0.250139	0.812484
	Al3346	Al	0.249964	-0.249823	0.750091
	Al3347	Al	0.249983	-0.499942	0.750093
	O3348	O	0.322592	-0.459277	0.824419
	O3349	O	0.312446	-0.375104	0.804292
	O3350	O	0.312487	-0.125344	0.820678
	O3351	O	0.364930	-0.459196	0.863009
	O3352	O	0.302334	-0.458873	0.824379
	O3353	O	0.260100	-0.458973	0.863126
	O3354	O	0.302373	-0.290823	0.824460
	O3355	O	0.302420	-0.209321	0.800574
	O3356	O	0.260076	-0.209164	0.762005
	O3357	O	0.322600	-0.291175	0.824411
	O3358	O	0.322603	-0.209104	0.800529
	O3359	O	0.364903	-0.209003	0.761905
	O3360	O	0.260128	-0.290725	0.863131
	O3361	O	0.302387	-0.040996	0.800534
	O3362	O	0.260084	-0.041161	0.762028
	O3363	O	0.364940	-0.040681	0.761931
	O3364	O	0.322597	-0.040754	0.800584
	O3365	O	0.364894	-0.290970	0.863081
	O3366	O	0.249940	-0.125169	0.866814
	O3367	O	0.375038	-0.374801	0.758268
	C3368	C	0.347988	-0.285918	0.847487
	C3369	C	0.352278	-0.374920	0.851474
	C3370	C	0.347960	-0.463992	0.847547
	C3371	C	0.339543	-0.464026	0.839887
	C3372	C	0.335217	-0.375095	0.835967
	C3373	C	0.339583	-0.285911	0.839809
	C3374	C	0.326161	-0.375119	0.827638
	C3375	C	0.361322	-0.375306	0.859835
	C3376	C	0.298799	-0.374949	0.827609
	C3377	C	0.289760	-0.374697	0.836002
	C3378	C	0.285482	-0.285751	0.839976
	C3379	C	0.277060	-0.285879	0.847676
	C3380	C	0.272730	-0.374798	0.851578
	C3381	C	0.277030	-0.463668	0.847641
	C3382	C	0.285450	-0.463683	0.839922
	C3383	C	0.263690	-0.374934	0.859927
	C3384	C	0.298850	-0.125140	0.797363
	C3385	C	0.289801	-0.125502	0.788992
	C3386	C	0.285514	-0.036451	0.785015
	C3387	C	0.277091	-0.036327	0.777361
	C3388	C	0.272721	-0.125383	0.773538
	C3389	C	0.277005	-0.214511	0.777507
	C3390	C	0.285425	-0.214583	0.785164
	C3391	C	0.263658	-0.125165	0.765196
	C3392	C	0.326169	-0.124994	0.797370
	C3393	C	0.335223	-0.124707	0.788990
	C3394	C	0.339523	-0.213891	0.785030
	C3395	C	0.347941	-0.213709	0.777326
	C3396	C	0.352284	-0.124569	0.773456
	C3397	C	0.347971	-0.035403	0.777392
	C3398	C	0.339543	-0.035472	0.785091
	C3399	C	0.361340	-0.124819	0.765113
	H3400	H	0.351187	-0.282833	0.774373
	H3401	H	0.336272	-0.283139	0.788022
	H3402	H	0.351290	-0.216798	0.850449
	H3403	H	0.336333	-0.216841	0.836766
	H3404	H	0.312346	-0.374875	0.795249
	H3405	H	0.312368	-0.124873	0.829692
	H3406	H	0.249884	-0.124482	0.857857
	H3407	H	0.375153	-0.375208	0.767195
	H3408	H	0.288662	-0.283457	0.788169
	H3409	H	0.273711	-0.283676	0.774551
	H3410	H	0.273855	-0.217007	0.850695
	H3411	H	0.288735	-0.216893	0.836980
	H3412	H	0.273844	0.032618	0.774282
	H3413	H	0.288838	0.032534	0.787912
	H3414	H	0.288687	-0.532543	0.836902
	H3415	H	0.273797	-0.532520	0.850642
	H3416	H	0.336252	-0.533032	0.836973
	H3417	H	0.351232	-0.533159	0.850573
	H3418	H	0.336281	0.033350	0.788074
	H3419	H	0.351261	0.033709	0.774457
	Al3420	Al	0.312479	-0.000007	0.812493
	Al3421	Al	0.312485	0.249843	0.812528
	Al3422	Al	0.250017	0.250173	0.750160
	Al3423	Al	0.250005	0.000086	0.750098
	O3424	O	0.322578	0.040724	0.824445
	O3425	O	0.312427	0.125032	0.804282
	O3426	O	0.312498	0.374970	0.820715
	O3427	O	0.364868	0.040610	0.863087
	O3428	O	0.302360	0.040696	0.824366
	O3429	O	0.260120	0.040652	0.863205
	O3430	O	0.302337	0.208979	0.824365
	O3431	O	0.302385	0.290644	0.800520
	O3432	O	0.260082	0.290589	0.762011
	O3433	O	0.322581	0.208975	0.824409
	O3434	O	0.322633	0.290503	0.800650
	O3435	O	0.364881	0.290753	0.761929
	O3436	O	0.260117	0.208933	0.863055
	O3437	O	0.302408	0.458937	0.800557
	O3438	O	0.260086	0.458909	0.761979
	O3439	O	0.364881	0.458881	0.761937
	O3440	O	0.322630	0.458852	0.800653
	O3441	O	0.364869	0.209043	0.863032
	O3442	O	0.250012	0.374874	0.866815
	O3443	O	0.374969	0.125232	0.758229
	C3444	C	0.348024	0.213817	0.847423
	C3445	C	0.352284	0.124587	0.851443
	C3446	C	0.347963	0.035448	0.847537
	C3447	C	0.339548	0.035586	0.839833
	C3448	C	0.335255	0.124835	0.835902
	C3449	C	0.339600	0.213778	0.839725
	C3450	C	0.326165	0.124840	0.827607
	C3451	C	0.361328	0.124950	0.859825
	C3452	C	0.298784	0.124652	0.827596
	C3453	C	0.289759	0.124789	0.835986
	C3454	C	0.285447	0.213818	0.839971
	C3455	C	0.277037	0.213665	0.847668
	C3456	C	0.272718	0.124391	0.851585
	C3457	C	0.277049	0.035493	0.847635
	C3458	C	0.285449	0.035667	0.839923
	C3459	C	0.263673	0.124642	0.859912
	C3460	C	0.298824	0.374909	0.797346
	C3461	C	0.289784	0.374842	0.788990
	C3462	C	0.285498	0.463915	0.785034
	C3463	C	0.277076	0.464009	0.777369
	C3464	C	0.272709	0.374968	0.773512
	C3465	C	0.277006	0.285799	0.777454
	C3466	C	0.285425	0.285667	0.785133
	C3467	C	0.263650	0.374913	0.765172
	C3468	C	0.326182	0.374783	0.797436
	C3469	C	0.335242	0.374856	0.789044
	C3470	C	0.339544	0.285722	0.785093
	C3471	C	0.347952	0.285846	0.777362
	C3472	C	0.352261	0.374908	0.773474
	C3473	C	0.347945	0.464163	0.777400
	C3474	C	0.339541	0.464052	0.785131
	C3475	C	0.361323	0.374798	0.765123
	H3476	H	0.351209	0.216628	0.774384
	H3477	H	0.336282	0.216585	0.788048
	H3478	H	0.351312	0.283241	0.850337
	H3479	H	0.336400	0.282887	0.836637
	H3480	H	0.312292	0.125190	0.795279
	H3481	H	0.312480	0.375165	0.829693
	H3482	H	0.249963	0.375531	0.857844
	H3483	H	0.375007	0.125276	0.767207
	H3484	H	0.288701	0.216609	0.788123
	H3485	H	0.273720	0.216754	0.774457
	H3486	H	0.273767	0.282471	0.850705
	H3487	H	0.288701	0.283150	0.836976
	H3488	H	0.273850	0.533226	0.774360
	H3489	H	0.288785	0.532714	0.788031
	H3490	H	0.288702	-0.033281	0.836893
	H3491	H	0.273785	-0.033534	0.850634
	H3492	H	0.336291	-0.033301	0.836907
	H3493	H	0.351169	-0.033463	0.850579
	H3494	H	0.336280	0.533319	0.788094
	H3495	H	0.351193	0.533462	0.774433
	Al3496	Al	0.312542	-0.499861	0.937540
	Al3497	Al	0.312496	-0.250096	0.937464
	Al3498	Al	0.249975	-0.250294	0.874977
	Al3499	Al	0.250003	-0.500070	0.875047
	O3500	O	0.322645	-0.459149	0.949480
	O3501	O	0.312565	-0.375355	0.929351
	O3502	O	0.312501	-0.125484	0.945709
	O3503	O	0.364929	-0.459213	0.988087
	O3504	O	0.302413	-0.459537	0.949433
	O3505	O	0.260213	-0.459185	0.988162
	O3506	O	0.302460	-0.291235	0.949437
	O3507	O	0.302402	-0.209387	0.925538
	O3508	O	0.260101	-0.209005	0.886870
	O3509	O	0.322642	-0.290785	0.949415
	O3510	O	0.322618	-0.208931	0.925552
	O3511	O	0.364921	-0.208731	0.886924
	O3512	O	0.260154	-0.290955	0.988154
	O3513	O	0.302468	-0.041312	0.925486
	O3514	O	0.260105	-0.040864	0.886937
	O3515	O	0.364908	-0.040431	0.886945
	O3516	O	0.322651	-0.040500	0.925642
	O3517	O	0.364929	-0.291021	0.988133
	O3518	O	0.250073	-0.124969	0.991830
	O3519	O	0.375012	-0.374996	0.883220
	C3520	C	0.347989	-0.285419	0.972567
	C3521	C	0.352331	-0.374520	0.976471
	C3522	C	0.347985	-0.463588	0.972577
	C3523	C	0.339573	-0.463731	0.964902
	C3524	C	0.335249	-0.374680	0.960986
	C3525	C	0.339569	-0.285473	0.964885
	C3526	C	0.326229	-0.374750	0.952593
	C3527	C	0.361346	-0.374911	0.984903
	C3528	C	0.298881	-0.375353	0.952617
	C3529	C	0.289840	-0.375017	0.960999
	C3530	C	0.285555	-0.285718	0.964940
	C3531	C	0.277147	-0.285841	0.972644
	C3532	C	0.272794	-0.374896	0.976557
	C3533	C	0.277116	-0.464210	0.972640
	C3534	C	0.285510	-0.464202	0.964933
	C3535	C	0.263754	-0.374993	0.984960
	C3536	C	0.298857	-0.125277	0.922347
	C3537	C	0.289801	-0.125245	0.913971
	C3538	C	0.285466	-0.036179	0.910074
	C3539	C	0.277042	-0.035923	0.902400
	C3540	C	0.272728	-0.124850	0.898467
	C3541	C	0.277063	-0.213812	0.902376
	C3542	C	0.285484	-0.214098	0.910031
	C3543	C	0.263658	-0.125055	0.890107
	C3544	C	0.326226	-0.124651	0.922428
	C3545	C	0.335265	-0.124920	0.914039
	C3546	C	0.339556	-0.214338	0.910074
	C3547	C	0.347976	-0.214152	0.902388
	C3548	C	0.352296	-0.124943	0.898504
	C3549	C	0.347975	-0.035687	0.902421
	C3550	C	0.339568	-0.035701	0.910106
	C3551	C	0.361354	-0.124600	0.890125
	H3552	H	0.351244	-0.283238	0.899341
	H3553	H	0.336314	-0.283391	0.913108
	H3554	H	0.351232	-0.216831	0.975615
	H3555	H	0.336322	-0.216681	0.961832
	H3556	H	0.312636	-0.375256	0.920315
	H3557	H	0.312510	-0.125411	0.954734
	H3558	H	0.250116	-0.125138	0.982813
	H3559	H	0.374967	-0.374738	0.892177
	H3560	H	0.288728	-0.282953	0.913046
	H3561	H	0.273795	-0.282795	0.899394
	H3562	H	0.273907	-0.216777	0.975696
	H3563	H	0.288849	-0.216611	0.961915
	H3564	H	0.273763	0.032985	0.899415
	H3565	H	0.288726	0.032441	0.913105
	H3566	H	0.288768	-0.533365	0.961863
	H3567	H	0.273883	-0.533270	0.975702
	H3568	H	0.336319	-0.532718	0.961842
	H3569	H	0.351215	-0.532446	0.975603
	H3570	H	0.336319	0.033300	0.913161
	H3571	H	0.351220	0.033621	0.899397
	Al3572	Al	0.312514	-0.000264	0.937492
	Al3573	Al	0.312494	0.249987	0.937555
	Al3574	Al	0.250063	0.249706	0.874979
	Al3575	Al	0.249989	-0.000066	0.875022
	O3576	O	0.322635	0.040529	0.949428
	O3577	O	0.312507	0.125021	0.929319
	O3578	O	0.312490	0.375064	0.945730
	O3579	O	0.364901	0.040865	0.988069
	O3580	O	0.302447	0.040553	0.949540
	O3581	O	0.260157	0.040863	0.988132
	O3582	O	0.302480	0.208772	0.949529
	O3583	O	0.302462	0.291030	0.925557
	O3584	O	0.260151	0.291174	0.886894
	O3585	O	0.322617	0.208842	0.949443
	O3586	O	0.322663	0.290352	0.925661
	O3587	O	0.364958	0.290792	0.886872
	O3588	O	0.260165	0.208998	0.988098
	O3589	O	0.302415	0.459408	0.925604
	O3590	O	0.260100	0.459349	0.886945
	O3591	O	0.364910	0.459272	0.886868
	O3592	O	0.322658	0.458795	0.925598
	O3593	O	0.364910	0.209091	0.987994
	O3594	O	0.250032	0.375238	0.991795
	O3595	O	0.375020	0.124967	0.883130
	C3596	C	0.347971	0.213864	0.972574
	C3597	C	0.352329	0.124753	0.976414
	C3598	C	0.348001	0.035695	0.972480
	C3599	C	0.339594	0.035653	0.964812
	C3600	C	0.335264	0.124735	0.960934
	C3601	C	0.339555	0.213812	0.964893
	C3602	C	0.326205	0.124779	0.952579
	C3603	C	0.361343	0.124936	0.984864
	C3604	C	0.298883	0.124691	0.952732
	C3605	C	0.289851	0.124976	0.961092
	C3606	C	0.285494	0.213947	0.964957
	C3607	C	0.277067	0.214253	0.972625
	C3608	C	0.272785	0.125030	0.976589
	C3609	C	0.277123	0.036006	0.972707
	C3610	C	0.285533	0.036010	0.965020
	C3611	C	0.263753	0.124996	0.984941
	C3612	C	0.298879	0.375203	0.922366
	C3613	C	0.289835	0.375440	0.914007
	C3614	C	0.285490	0.464539	0.910088
	C3615	C	0.277082	0.464376	0.902416
	C3616	C	0.272764	0.375141	0.898466
	C3617	C	0.277090	0.285984	0.902418
	C3618	C	0.285498	0.286136	0.910094
	C3619	C	0.263715	0.375342	0.890088
	C3620	C	0.326227	0.374549	0.922446
	C3621	C	0.335275	0.374583	0.914010
	C3622	C	0.339546	0.285538	0.910001
	C3623	C	0.347961	0.285488	0.902286
	C3624	C	0.352299	0.374716	0.898430
	C3625	C	0.347985	0.463845	0.902352
	C3626	C	0.339583	0.463921	0.910089
	C3627	C	0.361360	0.374857	0.890053
	H3628	H	0.351158	0.216438	0.899174
	H3629	H	0.336272	0.216255	0.912950
	H3630	H	0.351185	0.282789	0.975657
	H3631	H	0.336262	0.282616	0.961923
	H3632	H	0.312690	0.125382	0.920300
	H3633	H	0.312523	0.375163	0.954733
	H3634	H	0.250014	0.375157	0.982802
	H3635	H	0.375024	0.124820	0.892106
	H3636	H	0.288767	0.217009	0.913106
	H3637	H	0.273845	0.217066	0.899381
	H3638	H	0.273777	0.283303	0.975573
	H3639	H	0.288726	0.283307	0.961885
	H3640	H	0.273814	0.533386	0.899388
	H3641	H	0.288741	0.533712	0.913068
	H3642	H	0.288807	-0.033388	0.962017
	H3643	H	0.273895	-0.033113	0.975739
	H3644	H	0.336331	-0.033377	0.961756
	H3645	H	0.351263	-0.033218	0.975516
	H3646	H	0.336333	0.533084	0.913092
	H3647	H	0.351228	0.533140	0.899276
	Al3648	Al	0.437492	-0.500210	0.062577
	Al3649	Al	0.437498	-0.250339	0.062565
	Al3650	Al	0.374990	-0.250019	0.000057
	Al3651	Al	0.375032	-0.499842	-0.000011
	O3652	O	0.447597	-0.459280	0.074508
	O3653	O	0.437479	-0.375026	0.054387
	O3654	O	0.437493	-0.125281	0.070741
	O3655	O	0.489892	-0.459230	0.113139
	O3656	O	0.427389	-0.458885	0.074496
	O3657	O	0.385089	-0.459065	0.113185
	O3658	O	0.427390	-0.290648	0.074513
	O3659	O	0.427437	-0.209219	0.050601
	O3660	O	0.385118	-0.209342	0.011972
	O3661	O	0.447620	-0.291118	0.074457
	O3662	O	0.447624	-0.209129	0.050608
	O3663	O	0.489873	-0.209609	0.011941
	O3664	O	0.385140	-0.290894	0.113290
	O3665	O	0.427435	-0.041073	0.050604
	O3666	O	0.385103	-0.041173	0.011931
	O3667	O	0.489927	-0.041611	0.012065
	O3668	O	0.447644	-0.040992	0.050665
	O3669	O	0.489894	-0.291118	0.113038
	O3670	O	0.375012	-0.124955	0.116981
	O3671	O	0.500051	-0.375214	0.008315
	C3672	C	0.472950	-0.285849	0.097646
	C3673	C	0.477253	-0.374983	0.101575
	C3674	C	0.472947	-0.464100	0.097666
	C3675	C	0.464532	-0.464027	0.089987
	C3676	C	0.460214	-0.375008	0.086063
	C3677	C	0.464537	-0.285929	0.089988
	C3678	C	0.451145	-0.375112	0.077710
	C3679	C	0.486334	-0.375101	0.109911
	C3680	C	0.423806	-0.374673	0.077717
	C3681	C	0.414750	-0.374607	0.086042
	C3682	C	0.410508	-0.285409	0.090088
	C3683	C	0.402088	-0.285533	0.097802
	C3684	C	0.397719	-0.374815	0.101621
	C3685	C	0.402001	-0.463977	0.097623
	C3686	C	0.410410	-0.463788	0.089914
	C3687	C	0.388678	-0.374982	0.110026
	C3688	C	0.423859	-0.125186	0.047461
	C3689	C	0.414834	-0.125040	0.039029
	C3690	C	0.410547	-0.036050	0.035027
	C3691	C	0.402117	-0.035823	0.027351
	C3692	C	0.397751	-0.124920	0.023539
	C3693	C	0.402082	-0.214098	0.027446
	C3694	C	0.410517	-0.214207	0.035115
	C3695	C	0.388663	-0.125047	0.015165
	C3696	C	0.451215	-0.124940	0.047448
	C3697	C	0.460238	-0.125104	0.039076
	C3698	C	0.464526	-0.214175	0.035153
	C3699	C	0.472944	-0.214200	0.027460
	C3700	C	0.477305	-0.125310	0.023601
	C3701	C	0.472953	-0.036286	0.027421
	C3702	C	0.464537	-0.036308	0.035120
	C3703	C	0.486320	-0.125562	0.015165
	H3704	H	0.476142	-0.283290	0.024364
	H3705	H	0.461222	-0.283111	0.038079
	H3706	H	0.476200	-0.217096	0.100615
	H3707	H	0.461265	-0.216928	0.087005
	H3708	H	0.437297	-0.375323	0.045380
	H3709	H	0.437425	-0.125363	0.079791
	H3710	H	0.374871	-0.125317	0.107948
	H3711	H	0.500067	-0.375169	0.017296
	H3712	H	0.413742	-0.283416	0.038178
	H3713	H	0.398827	-0.283123	0.024458
	H3714	H	0.398897	-0.216535	0.100927
	H3715	H	0.413813	-0.216178	0.087209
	H3716	H	0.398935	0.033210	0.024269
	H3717	H	0.413782	0.033123	0.038077
	H3718	H	0.413632	-0.533194	0.086862
	H3719	H	0.398725	-0.533198	0.100579
	H3720	H	0.461237	-0.532727	0.086998
	H3721	H	0.476218	-0.532782	0.100699
	H3722	H	0.461244	0.032734	0.038044
	H3723	H	0.476147	0.032469	0.024309
	Al3724	Al	0.437523	-0.000383	0.062588
	Al3725	Al	0.437526	0.249745	0.062587
	Al3726	Al	0.375002	0.250118	0.000028
	Al3727	Al	0.374996	0.000087	0.000000
	O3728	O	0.447590	0.040981	0.074557
	O3729	O	0.437500	0.124675	0.054416
	O3730	O	0.437501	0.374886	0.070807
	O3731	O	0.489927	0.040732	0.113103
	O3732	O	0.427409	0.040887	0.074467
	O3733	O	0.385189	0.040528	0.113315
	O3734	O	0.427442	0.208588	0.074534
	O3735	O	0.427379	0.290798	0.050728
	O3736	O	0.385115	0.290611	0.011935
	O3737	O	0.447642	0.209369	0.074488
	O3738	O	0.447603	0.291122	0.050612
	O3739	O	0.489805	0.290790	0.011899
	O3740	O	0.385155	0.208606	0.113201
	O3741	O	0.427336	0.458929	0.050679
	O3742	O	0.385122	0.458644	0.011951
	O3743	O	0.489928	0.459026	0.011970
	O3744	O	0.447606	0.459236	0.050684
	O3745	O	0.489945	0.208643	0.113072
	O3746	O	0.375041	0.374764	0.116950
	O3747	O	0.499992	0.125035	0.008283
	C3748	C	0.473006	0.213850	0.097643
	C3749	C	0.477307	0.124664	0.101584
	C3750	C	0.472935	0.035736	0.097739
	C3751	C	0.464529	0.035877	0.090045
	C3752	C	0.460261	0.125013	0.086039
	C3753	C	0.464589	0.213943	0.089948
	C3754	C	0.451204	0.125164	0.077706
	C3755	C	0.486382	0.124832	0.109870
	C3756	C	0.423836	0.124880	0.077685
	C3757	C	0.414793	0.124744	0.086036
	C3758	C	0.410519	0.213665	0.090057
	C3759	C	0.402119	0.213350	0.097769
	C3760	C	0.397738	0.124476	0.101623
	C3761	C	0.402029	0.035606	0.097599
	C3762	C	0.410431	0.035804	0.089892
	C3763	C	0.388732	0.124575	0.110004
	C3764	C	0.423820	0.374780	0.047461
	C3765	C	0.414813	0.374523	0.039017
	C3766	C	0.410506	0.463617	0.035053
	C3767	C	0.402121	0.463676	0.027332
	C3768	C	0.397790	0.374572	0.023432
	C3769	C	0.402049	0.285592	0.027501
	C3770	C	0.410445	0.285504	0.035203
	C3771	C	0.388727	0.374704	0.015069
	C3772	C	0.451184	0.375159	0.047467
	C3773	C	0.460207	0.375261	0.039036
	C3774	C	0.464540	0.286313	0.035138
	C3775	C	0.472968	0.286233	0.027442
	C3776	C	0.477278	0.375299	0.023505
	C3777	C	0.473005	0.464333	0.027478
	C3778	C	0.464563	0.464378	0.035171
	C3779	C	0.486285	0.375080	0.015119
	H3780	H	0.476214	0.217198	0.024465
	H3781	H	0.461331	0.217348	0.038214
	H3782	H	0.476286	0.282580	0.100621
	H3783	H	0.461378	0.282961	0.086861
	H3784	H	0.437452	0.124232	0.045406
	H3785	H	0.437506	0.374461	0.079835
	H3786	H	0.375037	0.374473	0.107985
	H3787	H	0.500087	0.125206	0.017267
	H3788	H	0.413669	0.216563	0.038316
	H3789	H	0.398762	0.216633	0.024502
	H3790	H	0.398904	0.282442	0.100874
	H3791	H	0.413800	0.282656	0.087084
	H3792	H	0.398876	0.532866	0.024254
	H3793	H	0.413787	0.532550	0.038043
	H3794	H	0.413640	-0.032958	0.086772
	H3795	H	0.398743	-0.033357	0.100518
	H3796	H	0.461245	-0.033111	0.087092
	H3797	H	0.476143	-0.033214	0.100762
	H3798	H	0.461373	0.533514	0.038334
	H3799	H	0.476256	0.533684	0.024513
	Al3800	Al	0.437552	-0.500093	0.187599
	Al3801	Al	0.437551	-0.250025	0.187552
	Al3802	Al	0.375041	-0.250186	0.125147
	Al3803	Al	0.375002	-0.500269	0.125216
	O3804	O	0.447610	-0.459039	0.199611
	O3805	O	0.437584	-0.374993	0.179369
	O3806	O	0.437548	-0.125017	0.195717
	O3807	O	0.489932	-0.459167	0.238183
	O3808	O	0.427408	-0.459136	0.199436
	O3809	O	0.385165	-0.459207	0.238118
	O3810	O	0.427420	-0.290811	0.199473
	O3811	O	0.427418	-0.209207	0.175647
	O3812	O	0.385130	-0.209461	0.137107
	O3813	O	0.447652	-0.290828	0.199512
	O3814	O	0.447652	-0.209157	0.175576
	O3815	O	0.489876	-0.209611	0.136903
	O3816	O	0.385152	-0.290836	0.238052
	O3817	O	0.427452	-0.040876	0.175690
	O3818	O	0.385092	-0.041203	0.137142
	O3819	O	0.489942	-0.041373	0.136888
	O3820	O	0.447658	-0.040826	0.175681
	O3821	O	0.489888	-0.290973	0.238210
	O3822	O	0.375082	-0.125147	0.241805
	O3823	O	0.499987	-0.375236	0.133247
	C3824	C	0.473027	-0.286407	0.222647
	C3825	C	0.477346	-0.375388	0.226575
	C3826	C	0.473025	-0.464406	0.222666
	C3827	C	0.464603	-0.464058	0.214996
	C3828	C	0.460299	-0.375072	0.211022
	C3829	C	0.464612	-0.286106	0.214970
	C3830	C	0.451210	-0.375106	0.202741
	C3831	C	0.486351	-0.375155	0.234978
	C3832	C	0.423846	-0.375067	0.202640
	C3833	C	0.414820	-0.374963	0.211022
	C3834	C	0.410538	-0.285974	0.215024
	C3835	C	0.402130	-0.286171	0.222710
	C3836	C	0.397813	-0.375287	0.226581
	C3837	C	0.402102	-0.464207	0.222604
	C3838	C	0.410504	-0.464017	0.214894
	C3839	C	0.388741	-0.375035	0.234921
	C3840	C	0.423865	-0.125121	0.172469
	C3841	C	0.414807	-0.124959	0.164138
	C3842	C	0.410511	-0.036044	0.160151
	C3843	C	0.402099	-0.035963	0.152473
	C3844	C	0.397749	-0.125153	0.148628
	C3845	C	0.402062	-0.214090	0.152574
	C3846	C	0.410473	-0.214073	0.160263
	C3847	C	0.388685	-0.125326	0.140291
	C3848	C	0.451203	-0.124913	0.172421
	C3849	C	0.460264	-0.124687	0.164062
	C3850	C	0.464553	-0.213715	0.160100
	C3851	C	0.472971	-0.213679	0.152414
	C3852	C	0.477302	-0.124783	0.148479
	C3853	C	0.473013	-0.035670	0.152452
	C3854	C	0.464592	-0.035686	0.160151
	C3855	C	0.486340	-0.125099	0.140118
	H3856	H	0.476214	-0.282691	0.149420
	H3857	H	0.461284	-0.282568	0.163106
	H3858	H	0.476284	-0.217576	0.225694
	H3859	H	0.461358	-0.217008	0.211988
	H3860	H	0.437610	-0.375611	0.170424
	H3861	H	0.437486	-0.125796	0.204637
	H3862	H	0.375060	-0.125569	0.232815
	H3863	H	0.500065	-0.374939	0.142237
	H3864	H	0.413732	-0.283178	0.163290
	H3865	H	0.398778	-0.283084	0.149549
	H3866	H	0.398899	-0.217376	0.225776
	H3867	H	0.413813	-0.216916	0.212074
	H3868	H	0.398873	0.032969	0.149434
	H3869	H	0.413808	0.032756	0.163057
	H3870	H	0.413734	-0.532882	0.211840
	H3871	H	0.398842	-0.533234	0.225599
	H3872	H	0.461307	-0.532999	0.211995
	H3873	H	0.476246	-0.533387	0.225748
	H3874	H	0.461332	0.033325	0.163198
	H3875	H	0.476283	0.033270	0.149465
	Al3876	Al	0.437530	-0.000300	0.187565
	Al3877	Al	0.437537	0.249747	0.187559
	Al3878	Al	0.375055	0.249623	0.125123
	Al3879	Al	0.375030	-0.000217	0.125208
	O3880	O	0.447680	0.040834	0.199473
	O3881	O	0.437575	0.124899	0.179387
	O3882	O	0.437510	0.374940	0.195756
	O3883	O	0.489932	0.040661	0.238228
	O3884	O	0.427431	0.040898	0.199542
	O3885	O	0.385121	0.041094	0.238083
	O3886	O	0.427454	0.209161	0.199566
	O3887	O	0.427404	0.291070	0.175661
	O3888	O	0.385159	0.291162	0.137059
	O3889	O	0.447649	0.209074	0.199524
	O3890	O	0.447642	0.290700	0.175613
	O3891	O	0.489908	0.290661	0.136838
	O3892	O	0.385192	0.209153	0.238174
	O3893	O	0.427423	0.459223	0.175687
	O3894	O	0.385116	0.459201	0.137106
	O3895	O	0.489893	0.458911	0.136883
	O3896	O	0.447653	0.458958	0.175675
	O3897	O	0.489940	0.208637	0.238173
	O3898	O	0.375018	0.374723	0.241799
	O3899	O	0.500070	0.124689	0.133200
	C3900	C	0.473030	0.213465	0.222661
	C3901	C	0.477321	0.124480	0.226636
	C3902	C	0.472985	0.035601	0.222718
	C3903	C	0.464585	0.035789	0.215014
	C3904	C	0.460293	0.124826	0.211054
	C3905	C	0.464626	0.213621	0.214980
	C3906	C	0.451228	0.125134	0.202732
	C3907	C	0.486393	0.124597	0.234982
	C3908	C	0.423868	0.124876	0.202726
	C3909	C	0.414791	0.124706	0.211048
	C3910	C	0.410507	0.213686	0.215010
	C3911	C	0.402081	0.213778	0.222672
	C3912	C	0.397737	0.124742	0.226541
	C3913	C	0.402024	0.035617	0.222590
	C3914	C	0.410443	0.035726	0.214932
	C3915	C	0.388705	0.124893	0.234916
	C3916	C	0.423848	0.375281	0.172468
	C3917	C	0.414830	0.375386	0.164077
	C3918	C	0.410493	0.464505	0.160180
	C3919	C	0.402065	0.464446	0.152515
	C3920	C	0.397756	0.375343	0.148588
	C3921	C	0.402083	0.286139	0.152480
	C3922	C	0.410502	0.286311	0.160169
	C3923	C	0.388720	0.375117	0.140247
	C3924	C	0.451194	0.374791	0.172424
	C3925	C	0.460247	0.374986	0.164034
	C3926	C	0.464565	0.286117	0.160117
	C3927	C	0.472981	0.285951	0.152407
	C3928	C	0.477296	0.374727	0.148462
	C3929	C	0.473009	0.463748	0.152442
	C3930	C	0.464600	0.463892	0.160162
	C3931	C	0.486340	0.374711	0.140064
	H3932	H	0.476218	0.216792	0.149392
	H3933	H	0.461306	0.217408	0.163127
	H3934	H	0.476336	0.282219	0.225666
	H3935	H	0.461402	0.282531	0.211940
	H3936	H	0.437712	0.124325	0.170436
	H3937	H	0.437413	0.374188	0.204752
	H3938	H	0.375039	0.375244	0.232847
	H3939	H	0.500122	0.125342	0.142164
	H3940	H	0.413725	0.217056	0.163191
	H3941	H	0.398830	0.216978	0.149457
	H3942	H	0.398846	0.282793	0.225760
	H3943	H	0.413781	0.282757	0.212036
	H3944	H	0.398799	0.533686	0.149534
	H3945	H	0.413738	0.533609	0.163235
	H3946	H	0.413658	-0.033040	0.211856
	H3947	H	0.398764	-0.033406	0.225541
	H3948	H	0.461277	-0.032989	0.212074
	H3949	H	0.476223	-0.033212	0.225776
	H3950	H	0.461357	0.532993	0.163195
	H3951	H	0.476287	0.532336	0.149466
	Al3952	Al	0.437528	-0.499819	0.312587
	Al3953	Al	0.437504	-0.249885	0.312587
	Al3954	Al	0.375055	-0.250148	0.250040
	Al3955	Al	0.375021	-0.500175	0.250011
	O3956	O	0.447598	-0.458923	0.324523
	O3957	O	0.437516	-0.374946	0.304352
	O3958	O	0.437506	-0.125058	0.320740
	O3959	O	0.489944	-0.459286	0.363157
	O3960	O	0.427420	-0.458903	0.324457
	O3961	O	0.385086	-0.459023	0.363018
	O3962	O	0.427390	-0.290765	0.324474
	O3963	O	0.427428	-0.209305	0.300656
	O3964	O	0.385160	-0.209215	0.261991
	O3965	O	0.447624	-0.290672	0.324515
	O3966	O	0.447596	-0.209147	0.300599
	O3967	O	0.489901	-0.209274	0.261933
	O3968	O	0.385107	-0.290760	0.363014
	O3969	O	0.427412	-0.040932	0.300628
	O3970	O	0.385188	-0.040814	0.261915
	O3971	O	0.489896	-0.041293	0.261981
	O3972	O	0.447636	-0.040906	0.300637
	O3973	O	0.489925	-0.290918	0.363162
	O3974	O	0.375000	-0.125075	0.366800
	O3975	O	0.500050	-0.375063	0.258286
	C3976	C	0.473006	-0.286132	0.347674
	C3977	C	0.477318	-0.375469	0.351577
	C3978	C	0.472981	-0.464631	0.347662
	C3979	C	0.464558	-0.464502	0.339976
	C3980	C	0.460232	-0.375156	0.336088
	C3981	C	0.464584	-0.286046	0.339990
	C3982	C	0.451200	-0.374845	0.327673
	C3983	C	0.486348	-0.375182	0.359982
	C3984	C	0.423821	-0.374853	0.327635
	C3985	C	0.414771	-0.374959	0.335977
	C3986	C	0.410502	-0.285935	0.339981
	C3987	C	0.402088	-0.285950	0.347660
	C3988	C	0.397721	-0.375080	0.351484
	C3989	C	0.402023	-0.464193	0.347555
	C3990	C	0.410434	-0.464176	0.339870
	C3991	C	0.388669	-0.374859	0.359835
	C3992	C	0.423866	-0.125173	0.297399
	C3993	C	0.414801	-0.125077	0.289073
	C3994	C	0.410539	-0.035756	0.285050
	C3995	C	0.402134	-0.035956	0.277366
	C3996	C	0.397783	-0.124969	0.273512
	C3997	C	0.402035	-0.214246	0.277540
	C3998	C	0.410443	-0.214206	0.285226
	C3999	C	0.388710	-0.124988	0.265173
	C4000	C	0.451159	-0.125013	0.297430
	C4001	C	0.460218	-0.124967	0.289053
	C4002	C	0.464502	-0.214196	0.285095
	C4003	C	0.472941	-0.214256	0.277410
	C4004	C	0.477270	-0.125185	0.273511
	C4005	C	0.472968	-0.036018	0.277472
	C4006	C	0.464548	-0.035752	0.285163
	C4007	C	0.486331	-0.125357	0.265161
	H4008	H	0.476190	-0.283407	0.274413
	H4009	H	0.461218	-0.283364	0.288064
	H4010	H	0.476264	-0.216907	0.350674
	H4011	H	0.461393	-0.216868	0.336957
	H4012	H	0.437403	-0.375022	0.295381
	H4013	H	0.437419	-0.124623	0.329714
	H4014	H	0.374979	-0.124618	0.357832
	H4015	H	0.500215	-0.375034	0.267172
	H4016	H	0.413706	-0.283114	0.288285
	H4017	H	0.398737	-0.283205	0.274607
	H4018	H	0.398866	-0.216643	0.350729
	H4019	H	0.413808	-0.216914	0.337081
	H4020	H	0.398882	0.032843	0.274280
	H4021	H	0.413847	0.033582	0.287954
	H4022	H	0.413703	-0.533200	0.336865
	H4023	H	0.398764	-0.533220	0.350541
	H4024	H	0.461314	-0.533664	0.336903
	H4025	H	0.476237	-0.534209	0.350699
	H4026	H	0.461335	0.033380	0.288208
	H4027	H	0.476234	0.033263	0.274523
	Al4028	Al	0.437513	0.000066	0.312565
	Al4029	Al	0.437497	0.250274	0.312582
	Al4030	Al	0.375014	0.249823	0.250002
	Al4031	Al	0.375028	-0.000222	0.250018
	O4032	O	0.447616	0.041030	0.324520
	O4033	O	0.437590	0.125226	0.304392
	O4034	O	0.437518	0.375009	0.320845
	O4035	O	0.489959	0.040576	0.363130
	O4036	O	0.427407	0.040729	0.324454
	O4037	O	0.385076	0.040644	0.363001
	O4038	O	0.427442	0.209028	0.324506
	O4039	O	0.427380	0.290600	0.300690
	O4040	O	0.385134	0.290496	0.261927
	O4041	O	0.447607	0.209259	0.324563
	O4042	O	0.447605	0.291062	0.300661
	O4043	O	0.489900	0.290755	0.262013
	O4044	O	0.385070	0.208746	0.363021
	O4045	O	0.427421	0.458734	0.300681
	O4046	O	0.385160	0.458692	0.261826
	O4047	O	0.489899	0.459008	0.261993
	O4048	O	0.447624	0.459309	0.300672
	O4049	O	0.489886	0.208857	0.363192
	O4050	O	0.375044	0.374863	0.366741
	O4051	O	0.500040	0.124805	0.258324
	C4052	C	0.472980	0.213998	0.347707
	C4053	C	0.477320	0.124899	0.351557
	C4054	C	0.472973	0.035871	0.347654
	C4055	C	0.464547	0.035860	0.339978
	C4056	C	0.460248	0.125015	0.336058
	C4057	C	0.464554	0.213997	0.340021
	C4058	C	0.451205	0.125197	0.327694
	C4059	C	0.486339	0.124721	0.359983
	C4060	C	0.423830	0.124881	0.327654
	C4061	C	0.414789	0.124672	0.336003
	C4062	C	0.410484	0.213744	0.339969
	C4063	C	0.402043	0.213728	0.347609
	C4064	C	0.397692	0.124692	0.351471
	C4065	C	0.402004	0.035682	0.347530
	C4066	C	0.410443	0.035646	0.339885
	C4067	C	0.388650	0.124703	0.359814
	C4068	C	0.423828	0.374737	0.297498
	C4069	C	0.414792	0.374927	0.289100
	C4070	C	0.410552	0.463967	0.285036
	C4071	C	0.402130	0.464105	0.277320
	C4072	C	0.397770	0.374877	0.273453
	C4073	C	0.402017	0.285682	0.277498
	C4074	C	0.410423	0.285761	0.285231
	C4075	C	0.388691	0.374762	0.265124
	C4076	C	0.451184	0.375082	0.297468
	C4077	C	0.460228	0.375075	0.289088
	C4078	C	0.464514	0.285921	0.285100
	C4079	C	0.472930	0.285850	0.277420
	C4080	C	0.477283	0.374996	0.273599
	C4081	C	0.472969	0.464109	0.277535
	C4082	C	0.464545	0.464237	0.285210
	C4083	C	0.486336	0.374792	0.265190
	H4084	H	0.476143	0.216818	0.274302
	H4085	H	0.461223	0.217118	0.288015
	H4086	H	0.476198	0.282899	0.350824
	H4087	H	0.461304	0.282812	0.337021
	H4088	H	0.437790	0.125525	0.295426
	H4089	H	0.437468	0.374753	0.329878
	H4090	H	0.375132	0.375487	0.357759
	H4091	H	0.500105	0.124952	0.267301
	H4092	H	0.413628	0.216443	0.288375
	H4093	H	0.398716	0.216687	0.274606
	H4094	H	0.398809	0.282658	0.350659
	H4095	H	0.413764	0.282834	0.337003
	H4096	H	0.398917	0.533147	0.274254
	H4097	H	0.413826	0.533018	0.288001
	H4098	H	0.413667	-0.033275	0.336831
	H4099	H	0.398710	-0.033456	0.350498
	H4100	H	0.461286	-0.033070	0.336941
	H4101	H	0.476174	-0.032918	0.350722
	H4102	H	0.461280	0.533329	0.288193
	H4103	H	0.476230	0.533041	0.274521
	Al4104	Al	0.437436	-0.500039	0.437563
	Al4105	Al	0.437465	-0.250059	0.437576
	Al4106	Al	0.374993	-0.250154	0.375007
	Al4107	Al	0.374998	-0.500148	0.374943
	O4108	O	0.447524	-0.459069	0.449523
	O4109	O	0.437479	-0.375064	0.429352
	O4110	O	0.437405	-0.125118	0.445778
	O4111	O	0.489850	-0.459149	0.488175
	O4112	O	0.427350	-0.459005	0.449472
	O4113	O	0.385056	-0.458910	0.488202
	O4114	O	0.427337	-0.290805	0.449508
	O4115	O	0.427409	-0.209282	0.425576
	O4116	O	0.385090	-0.209057	0.386972
	O4117	O	0.447558	-0.290852	0.449451
	O4118	O	0.447584	-0.209319	0.425670
	O4119	O	0.489899	-0.209283	0.387053
	O4120	O	0.385049	-0.290695	0.488115
	O4121	O	0.427393	-0.041062	0.425587
	O4122	O	0.385088	-0.040749	0.386977
	O4123	O	0.489884	-0.040974	0.387055
	O4124	O	0.447602	-0.040888	0.425703
	O4125	O	0.489853	-0.290772	0.488148
	O4126	O	0.374935	-0.124784	0.491840
	O4127	O	0.499952	-0.374989	0.383357
	C4128	C	0.472937	-0.285991	0.472571
	C4129	C	0.477217	-0.374972	0.476574
	C4130	C	0.472870	-0.464023	0.472708
	C4131	C	0.464445	-0.463915	0.465008
	C4132	C	0.460166	-0.374866	0.461028
	C4133	C	0.464521	-0.285803	0.464870
	C4134	C	0.451109	-0.374889	0.452660
	C4135	C	0.486274	-0.375225	0.484949
	C4136	C	0.423772	-0.374988	0.452724
	C4137	C	0.414728	-0.374895	0.461097
	C4138	C	0.410394	-0.285638	0.465004
	C4139	C	0.401971	-0.285555	0.472676
	C4140	C	0.397683	-0.374914	0.476643
	C4141	C	0.401972	-0.464110	0.472664
	C4142	C	0.410377	-0.464030	0.464971
	C4143	C	0.388627	-0.374890	0.484979
	C4144	C	0.423828	-0.125021	0.422440
	C4145	C	0.414739	-0.125063	0.414073
	C4146	C	0.410449	-0.035785	0.410099
	C4147	C	0.402019	-0.035881	0.402432
	C4148	C	0.397679	-0.124963	0.398596
	C4149	C	0.401983	-0.214155	0.402553
	C4150	C	0.410404	-0.214273	0.410225
	C4151	C	0.388641	-0.124878	0.390186
	C4152	C	0.451178	-0.125131	0.422492
	C4153	C	0.460212	-0.125178	0.414116
	C4154	C	0.464525	-0.214478	0.410181
	C4155	C	0.472929	-0.214576	0.402469
	C4156	C	0.477251	-0.125291	0.398567
	C4157	C	0.472928	-0.035995	0.402460
	C4158	C	0.464511	-0.036027	0.410168
	C4159	C	0.486336	-0.125174	0.390229
	H4160	H	0.476151	-0.283680	0.399458
	H4161	H	0.461269	-0.283428	0.413192
	H4162	H	0.476197	-0.216663	0.475533
	H4163	H	0.461313	-0.216941	0.461752
	H4164	H	0.437791	-0.374909	0.420435
	H4165	H	0.437325	-0.125079	0.454798
	H4166	H	0.374992	-0.124737	0.482867
	H4167	H	0.499975	-0.375172	0.392374
	H4168	H	0.413656	-0.283533	0.413250
	H4169	H	0.398712	-0.283249	0.399568
	H4170	H	0.398695	-0.216441	0.475716
	H4171	H	0.413669	-0.216559	0.462018
	H4172	H	0.398810	0.033336	0.399366
	H4173	H	0.413723	0.033310	0.413057
	H4174	H	0.413622	-0.533220	0.461941
	H4175	H	0.398692	-0.533225	0.475663
	H4176	H	0.461209	-0.532854	0.461963
	H4177	H	0.476131	-0.532696	0.475768
	H4178	H	0.461283	0.033087	0.413206
	H4179	H	0.476203	0.032891	0.399431
	Al4180	Al	0.437492	-0.000102	0.437592
	Al4181	Al	0.437455	0.249873	0.437611
	Al4182	Al	0.375001	0.249995	0.374981
	Al4183	Al	0.375029	-0.000005	0.374957
	O4184	O	0.447576	0.040807	0.449542
	O4185	O	0.437499	0.124794	0.429397
	O4186	O	0.437424	0.374872	0.445811
	O4187	O	0.489833	0.040814	0.488200
	O4188	O	0.427384	0.040815	0.449527
	O4189	O	0.385073	0.040764	0.488194
	O4190	O	0.427365	0.209123	0.449499
	O4191	O	0.427354	0.290532	0.425679
	O4192	O	0.385104	0.290756	0.386909
	O4193	O	0.447567	0.208814	0.449552
	O4194	O	0.447555	0.290940	0.425660
	O4195	O	0.489905	0.290714	0.387054
	O4196	O	0.385032	0.209043	0.488112
	O4197	O	0.427372	0.458608	0.425617
	O4198	O	0.385133	0.458700	0.386884
	O4199	O	0.489908	0.458663	0.387036
	O4200	O	0.447546	0.458891	0.425634
	O4201	O	0.489894	0.209004	0.488152
	O4202	O	0.374998	0.374932	0.491826
	O4203	O	0.499934	0.124809	0.383353
	C4204	C	0.472975	0.214097	0.472603
	C4205	C	0.477233	0.125166	0.476653
	C4206	C	0.472909	0.036203	0.472765
	C4207	C	0.464492	0.036396	0.465087
	C4208	C	0.460191	0.125151	0.461121
	C4209	C	0.464549	0.214177	0.464929
	C4210	C	0.451135	0.125073	0.452731
	C4211	C	0.486285	0.124976	0.484997
	C4212	C	0.423789	0.125130	0.452675
	C4213	C	0.414726	0.124895	0.461051
	C4214	C	0.410402	0.213892	0.464975
	C4215	C	0.401985	0.214005	0.472643
	C4216	C	0.397648	0.124915	0.476560
	C4217	C	0.401964	0.035903	0.472622
	C4218	C	0.410384	0.035875	0.464953
	C4219	C	0.388611	0.124838	0.484960
	C4220	C	0.423755	0.374543	0.422493
	C4221	C	0.414727	0.374410	0.414097
	C4222	C	0.410467	0.463495	0.410073
	C4223	C	0.402059	0.463592	0.402372
	C4224	C	0.397699	0.374549	0.398527
	C4225	C	0.401977	0.285483	0.402524
	C4226	C	0.410378	0.285440	0.410244
	C4227	C	0.388671	0.374602	0.390114
	C4228	C	0.451107	0.374958	0.422429
	C4229	C	0.460154	0.375196	0.414057
	C4230	C	0.464449	0.286337	0.410054
	C4231	C	0.472854	0.286333	0.402373
	C4232	C	0.477240	0.375227	0.398551
	C4233	C	0.472934	0.464206	0.402526
	C4234	C	0.464519	0.464096	0.410205
	C4235	C	0.486295	0.374812	0.390202
	H4236	H	0.476061	0.217318	0.399269
	H4237	H	0.461155	0.217194	0.412973
	H4238	H	0.476288	0.283151	0.475550
	H4239	H	0.461363	0.282983	0.461824
	H4240	H	0.437433	0.124596	0.420428
	H4241	H	0.437426	0.374784	0.454724
	H4242	H	0.374862	0.374797	0.482815
	H4243	H	0.500037	0.124883	0.392282
	H4244	H	0.413571	0.216623	0.413351
	H4245	H	0.398702	0.216309	0.399568
	H4246	H	0.398743	0.282969	0.475674
	H4247	H	0.413673	0.283107	0.461973
	H4248	H	0.398820	0.532735	0.399309
	H4249	H	0.413735	0.532434	0.413052
	H4250	H	0.413627	-0.033231	0.461906
	H4251	H	0.398695	-0.033125	0.475654
	H4252	H	0.461246	-0.032125	0.462067
	H4253	H	0.476144	-0.032892	0.475796
	H4254	H	0.461226	0.532935	0.413211
	H4255	H	0.476213	0.533066	0.399578
	Al4256	Al	0.437512	-0.500329	0.562578
	Al4257	Al	0.437450	-0.250220	0.562556
	Al4258	Al	0.374931	-0.250031	0.500067
	Al4259	Al	0.374943	-0.500010	0.500081
	O4260	O	0.447589	-0.459504	0.574541
	O4261	O	0.437496	-0.375243	0.554401
	O4262	O	0.437432	-0.125201	0.570801
	O4263	O	0.489906	-0.459346	0.613032
	O4264	O	0.427351	-0.459185	0.574450
	O4265	O	0.385065	-0.459217	0.613164
	O4266	O	0.427332	-0.291088	0.574471
	O4267	O	0.427404	-0.208973	0.550572
	O4268	O	0.385061	-0.209050	0.511985
	O4269	O	0.447554	-0.291377	0.574565
	O4270	O	0.447523	-0.208779	0.550667
	O4271	O	0.489871	-0.208941	0.512058
	O4272	O	0.385056	-0.291185	0.613113
	O4273	O	0.427329	-0.040825	0.550625
	O4274	O	0.384985	-0.040750	0.512115
	O4275	O	0.489876	-0.040779	0.512031
	O4276	O	0.447533	-0.040614	0.550697
	O4277	O	0.489913	-0.291275	0.613076
	O4278	O	0.374955	-0.124876	0.616891
	O4279	O	0.499948	-0.375159	0.508251
	C4280	C	0.472972	-0.286192	0.597586
	C4281	C	0.477296	-0.375234	0.601509
	C4282	C	0.472952	-0.464245	0.597589
	C4283	C	0.464525	-0.464057	0.589950
	C4284	C	0.460193	-0.375095	0.586052
	C4285	C	0.464524	-0.286174	0.589957
	C4286	C	0.451154	-0.375289	0.577725
	C4287	C	0.486349	-0.375255	0.609832
	C4288	C	0.423781	-0.375223	0.577669
	C4289	C	0.414735	-0.375249	0.586005
	C4290	C	0.410435	-0.286021	0.589974
	C4291	C	0.402010	-0.286069	0.597651
	C4292	C	0.397660	-0.375041	0.601533
	C4293	C	0.401962	-0.464205	0.597550
	C4294	C	0.410378	-0.464192	0.589879
	C4295	C	0.388650	-0.375261	0.609931
	C4296	C	0.423795	-0.124881	0.547435
	C4297	C	0.414778	-0.124923	0.539012
	C4298	C	0.410392	-0.035795	0.535201
	C4299	C	0.401953	-0.035727	0.527558
	C4300	C	0.397670	-0.125004	0.523564
	C4301	C	0.402035	-0.214286	0.527408
	C4302	C	0.410470	-0.214176	0.535063
	C4303	C	0.388607	-0.124826	0.515232
	C4304	C	0.451085	-0.124694	0.547455
	C4305	C	0.460126	-0.124923	0.539051
	C4306	C	0.464451	-0.213931	0.535123
	C4307	C	0.472875	-0.213920	0.527455
	C4308	C	0.477201	-0.124933	0.523527
	C4309	C	0.472886	-0.035809	0.527451
	C4310	C	0.464461	-0.035875	0.535135
	C4311	C	0.486280	-0.124916	0.515203
	H4312	H	0.476153	-0.282844	0.524462
	H4313	H	0.461213	-0.283071	0.538121
	H4314	H	0.476275	-0.217287	0.600536
	H4315	H	0.461265	-0.217320	0.586910
	H4316	H	0.437512	-0.375379	0.545392
	H4317	H	0.437532	-0.125446	0.579741
	H4318	H	0.374757	-0.124956	0.607873
	H4319	H	0.500124	-0.375218	0.517186
	H4320	H	0.413721	-0.283156	0.538036
	H4321	H	0.398791	-0.283486	0.524358
	H4322	H	0.398765	-0.216759	0.600762
	H4323	H	0.413718	-0.217346	0.587033
	H4324	H	0.398666	0.033299	0.524593
	H4325	H	0.413583	0.033080	0.538322
	H4326	H	0.413639	-0.533214	0.586838
	H4327	H	0.398699	-0.533256	0.600534
	H4328	H	0.461280	-0.532998	0.586916
	H4329	H	0.476237	-0.533317	0.600526
	H4330	H	0.461213	0.033030	0.538176
	H4331	H	0.476142	0.033038	0.524471
	Al4332	Al	0.437413	0.000006	0.562635
	Al4333	Al	0.437449	0.249716	0.562590
	Al4334	Al	0.374991	0.249796	0.500019
	Al4335	Al	0.374959	-0.000099	0.500084
	O4336	O	0.447526	0.040842	0.574548
	O4337	O	0.437441	0.124950	0.554366
	O4338	O	0.437494	0.374816	0.570812
	O4339	O	0.489860	0.040522	0.613057
	O4340	O	0.427308	0.040901	0.574532
	O4341	O	0.385051	0.040989	0.613133
	O4342	O	0.427364	0.208830	0.574512
	O4343	O	0.427384	0.290918	0.550621
	O4344	O	0.385055	0.290885	0.511983
	O4345	O	0.447560	0.208993	0.574501
	O4346	O	0.447580	0.290414	0.550637
	O4347	O	0.489848	0.290377	0.512027
	O4348	O	0.385064	0.209168	0.613155
	O4349	O	0.427369	0.459276	0.550635
	O4350	O	0.385019	0.459238	0.511990
	O4351	O	0.489860	0.458614	0.512010
	O4352	O	0.447600	0.458722	0.550677
	O4353	O	0.489913	0.208671	0.613000
	O4354	O	0.374943	0.374793	0.616853
	O4355	O	0.499990	0.125138	0.508287
	C4356	C	0.472952	0.213950	0.597572
	C4357	C	0.477271	0.124880	0.601457
	C4358	C	0.472934	0.036044	0.597580
	C4359	C	0.464497	0.036009	0.589934
	C4360	C	0.460209	0.124907	0.586007
	C4361	C	0.464518	0.213931	0.589921
	C4362	C	0.451132	0.124993	0.577715
	C4363	C	0.486318	0.124672	0.609860
	C4364	C	0.423768	0.124933	0.577716
	C4365	C	0.414707	0.125314	0.586065
	C4366	C	0.410415	0.214483	0.590035
	C4367	C	0.401985	0.214508	0.597709
	C4368	C	0.397646	0.125278	0.601571
	C4369	C	0.401906	0.036111	0.597552
	C4370	C	0.410337	0.036124	0.589882
	C4371	C	0.388634	0.125220	0.609968
	C4372	C	0.423812	0.375215	0.547454
	C4373	C	0.414753	0.375071	0.539059
	C4374	C	0.410366	0.464247	0.535230
	C4375	C	0.401956	0.464302	0.527554
	C4376	C	0.397677	0.375159	0.523543
	C4377	C	0.402043	0.285950	0.527404
	C4378	C	0.410469	0.285794	0.535081
	C4379	C	0.388626	0.375121	0.515169
	C4380	C	0.451139	0.374615	0.547440
	C4381	C	0.460177	0.374687	0.539048
	C4382	C	0.464494	0.285509	0.535142
	C4383	C	0.472922	0.285566	0.527454
	C4384	C	0.477223	0.374693	0.523528
	C4385	C	0.472909	0.463991	0.527422
	C4386	C	0.464483	0.463708	0.535110
	C4387	C	0.486261	0.374635	0.515169
	H4388	H	0.476139	0.216445	0.524431
	H4389	H	0.461247	0.216341	0.538121
	H4390	H	0.476173	0.282701	0.600651
	H4391	H	0.461260	0.282987	0.586906
	H4392	H	0.437515	0.125125	0.545463
	H4393	H	0.437578	0.374875	0.579798
	H4394	H	0.374884	0.374535	0.607869
	H4395	H	0.499995	0.125506	0.517318
	H4396	H	0.413754	0.216750	0.538067
	H4397	H	0.398831	0.216814	0.524287
	H4398	H	0.398798	0.283846	0.600791
	H4399	H	0.413699	0.283364	0.587089
	H4400	H	0.398675	0.533567	0.524584
	H4401	H	0.413584	0.533523	0.538336
	H4402	H	0.413547	-0.033006	0.586816
	H4403	H	0.398626	-0.032913	0.600496
	H4404	H	0.461223	-0.033076	0.586987
	H4405	H	0.476165	-0.032762	0.600652
	H4406	H	0.461220	0.532762	0.538079
	H4407	H	0.476146	0.533189	0.524383
	Al4408	Al	0.437448	-0.499804	0.687454
	Al4409	Al	0.437451	-0.249971	0.687395
	Al4410	Al	0.374981	-0.249945	0.625058
	Al4411	Al	0.374924	-0.500214	0.625073
	O4412	O	0.447560	-0.459515	0.699334
	O4413	O	0.437421	-0.375049	0.679189
	O4414	O	0.437499	-0.124957	0.695656
	O4415	O	0.489873	-0.459253	0.737903
	O4416	O	0.427357	-0.459063	0.699373
	O4417	O	0.385161	-0.459046	0.738170
	O4418	O	0.427296	-0.290864	0.699305
	O4419	O	0.427418	-0.208757	0.675426
	O4420	O	0.385034	-0.208749	0.636984
	O4421	O	0.447510	-0.291399	0.699365
	O4422	O	0.447612	-0.209393	0.675575
	O4423	O	0.489866	-0.209425	0.636868
	O4424	O	0.385087	-0.291030	0.738086
	O4425	O	0.427365	-0.040606	0.675539
	O4426	O	0.385070	-0.040521	0.637039
	O4427	O	0.489883	-0.041241	0.636899
	O4428	O	0.447597	-0.041427	0.675582
	O4429	O	0.489845	-0.291042	0.738003
	O4430	O	0.374996	-0.124988	0.741859
	O4431	O	0.500030	-0.374796	0.633150
	C4432	C	0.472881	-0.286013	0.722528
	C4433	C	0.477224	-0.375144	0.726423
	C4434	C	0.472936	-0.464310	0.722428
	C4435	C	0.464530	-0.464329	0.714763
	C4436	C	0.460149	-0.375241	0.710944
	C4437	C	0.464464	-0.285987	0.714878
	C4438	C	0.451121	-0.375484	0.702568
	C4439	C	0.486289	-0.374907	0.734773
	C4440	C	0.423768	-0.374825	0.702537
	C4441	C	0.414726	-0.374979	0.710946
	C4442	C	0.410363	-0.286042	0.714782
	C4443	C	0.401958	-0.286131	0.722483
	C4444	C	0.397700	-0.375054	0.726520
	C4445	C	0.402076	-0.463973	0.722741
	C4446	C	0.410484	-0.464009	0.715061
	C4447	C	0.388669	-0.375037	0.734915
	C4448	C	0.423821	-0.124521	0.672316
	C4449	C	0.414783	-0.124573	0.663981
	C4450	C	0.410460	-0.035304	0.660090
	C4451	C	0.402031	-0.035436	0.652441
	C4452	C	0.397701	-0.124835	0.648526
	C4453	C	0.402037	-0.214042	0.652411
	C4454	C	0.410475	-0.213965	0.660041
	C4455	C	0.388642	-0.124715	0.640210
	C4456	C	0.451164	-0.125244	0.672405
	C4457	C	0.460200	-0.125075	0.664004
	C4458	C	0.464489	-0.214092	0.659979
	C4459	C	0.472897	-0.213998	0.652291
	C4460	C	0.477253	-0.125039	0.648458
	C4461	C	0.472962	-0.035928	0.652463
	C4462	C	0.464557	-0.036014	0.660161
	C4463	C	0.486300	-0.125284	0.640067
	H4464	H	0.476102	-0.282762	0.649185
	H4465	H	0.461242	-0.282892	0.662999
	H4466	H	0.476160	-0.216977	0.725531
	H4467	H	0.461209	-0.216929	0.711860
	H4468	H	0.437411	-0.375762	0.670206
	H4469	H	0.437543	-0.125630	0.704631
	H4470	H	0.374856	-0.124644	0.732892
	H4471	H	0.499883	-0.374817	0.642129
	H4472	H	0.413739	-0.283277	0.663040
	H4473	H	0.398780	-0.283332	0.649399
	H4474	H	0.398663	-0.217192	0.725426
	H4475	H	0.413584	-0.217212	0.711675
	H4476	H	0.398772	0.033672	0.649460
	H4477	H	0.413715	0.033946	0.663124
	H4478	H	0.413765	-0.532965	0.712169
	H4479	H	0.398867	-0.532689	0.725916
	H4480	H	0.461311	-0.533498	0.711676
	H4481	H	0.476248	-0.533295	0.725327
	H4482	H	0.461337	0.033054	0.663264
	H4483	H	0.476234	0.033168	0.649456
	Al4484	Al	0.437506	0.000042	0.687514
	Al4485	Al	0.437504	0.249738	0.687379
	Al4486	Al	0.374954	0.250140	0.625044
	Al4487	Al	0.374952	-0.000217	0.625093
	O4488	O	0.447575	0.040979	0.699448
	O4489	O	0.437549	0.124703	0.679210
	O4490	O	0.437458	0.374609	0.695607
	O4491	O	0.489918	0.041237	0.737956
	O4492	O	0.427372	0.040898	0.699379
	O4493	O	0.385143	0.040975	0.738116
	O4494	O	0.427356	0.209172	0.699265
	O4495	O	0.427339	0.290562	0.675511
	O4496	O	0.385036	0.290908	0.637005
	O4497	O	0.447593	0.209284	0.699357
	O4498	O	0.447582	0.291279	0.675441
	O4499	O	0.489826	0.291187	0.636854
	O4500	O	0.385101	0.209231	0.737999
	O4501	O	0.427368	0.458644	0.675503
	O4502	O	0.385008	0.459018	0.637043
	O4503	O	0.489905	0.459280	0.636903
	O4504	O	0.447587	0.459327	0.675558
	O4505	O	0.489878	0.209721	0.738037
	O4506	O	0.375027	0.375123	0.741780
	O4507	O	0.499964	0.125160	0.633223
	C4508	C	0.472946	0.214403	0.722559
	C4509	C	0.477289	0.125536	0.726432
	C4510	C	0.472962	0.036333	0.722538
	C4511	C	0.464533	0.036071	0.714877
	C4512	C	0.460221	0.125151	0.710951
	C4513	C	0.464515	0.214247	0.714893
	C4514	C	0.451149	0.125099	0.702593
	C4515	C	0.486329	0.125450	0.734821
	C4516	C	0.423816	0.125105	0.702554
	C4517	C	0.414777	0.124967	0.710948
	C4518	C	0.410413	0.213767	0.714812
	C4519	C	0.401996	0.213923	0.722505
	C4520	C	0.397749	0.124974	0.726523
	C4521	C	0.402103	0.035866	0.722654
	C4522	C	0.410523	0.035834	0.714949
	C4523	C	0.388697	0.124945	0.734869
	C4524	C	0.423768	0.374659	0.672350
	C4525	C	0.414719	0.374956	0.664018
	C4526	C	0.410378	0.464008	0.660186
	C4527	C	0.401955	0.464019	0.652499
	C4528	C	0.397669	0.375078	0.648519
	C4529	C	0.401992	0.286146	0.652379
	C4530	C	0.410421	0.286212	0.660047
	C4531	C	0.388600	0.375046	0.640205
	C4532	C	0.451173	0.375371	0.672323
	C4533	C	0.460215	0.375658	0.663966
	C4534	C	0.464504	0.286568	0.659963
	C4535	C	0.472916	0.286512	0.652264
	C4536	C	0.477273	0.375432	0.648482
	C4537	C	0.472979	0.464378	0.652453
	C4538	C	0.464569	0.464440	0.660155
	C4539	C	0.486299	0.375392	0.640070
	H4540	H	0.476129	0.217485	0.649164
	H4541	H	0.461248	0.217937	0.662932
	H4542	H	0.476174	0.283509	0.725605
	H4543	H	0.461238	0.283086	0.711917
	H4544	H	0.437656	0.124236	0.670235
	H4545	H	0.437453	0.374223	0.704589
	H4546	H	0.375156	0.375214	0.732820
	H4547	H	0.499990	0.124862	0.642157
	H4548	H	0.413705	0.217109	0.663013
	H4549	H	0.398741	0.217030	0.649381
	H4550	H	0.398729	0.282840	0.725447
	H4551	H	0.413603	0.282707	0.711731
	H4552	H	0.398674	0.532856	0.649574
	H4553	H	0.413587	0.532936	0.663242
	H4554	H	0.413825	-0.033214	0.711977
	H4555	H	0.398934	-0.033155	0.725773
	H4556	H	0.461249	-0.032763	0.711922
	H4557	H	0.476232	-0.032592	0.725564
	H4558	H	0.461330	0.533485	0.663193
	H4559	H	0.476225	0.533330	0.649438
	Al4560	Al	0.437517	-0.500149	0.812478
	Al4561	Al	0.437522	-0.250227	0.812472
	Al4562	Al	0.375028	-0.250029	0.750045
	Al4563	Al	0.374991	-0.499840	0.750030
	O4564	O	0.447618	-0.459035	0.824333
	O4565	O	0.437517	-0.375169	0.804246
	O4566	O	0.437448	-0.124962	0.820671
	O4567	O	0.489917	-0.458706	0.863021
	O4568	O	0.427378	-0.459304	0.824341
	O4569	O	0.385155	-0.459059	0.863025
	O4570	O	0.427342	-0.291019	0.824316
	O4571	O	0.427432	-0.209157	0.800535
	O4572	O	0.385179	-0.209158	0.761893
	O4573	O	0.447590	-0.290815	0.824464
	O4574	O	0.447656	-0.208894	0.800642
	O4575	O	0.489862	-0.208507	0.761806
	O4576	O	0.385147	-0.290872	0.863040
	O4577	O	0.427431	-0.040954	0.800552
	O4578	O	0.385151	-0.040903	0.761986
	O4579	O	0.489828	-0.040390	0.761794
	O4580	O	0.447673	-0.040820	0.800561
	O4581	O	0.489869	-0.290351	0.863035
	O4582	O	0.374984	-0.125281	0.866759
	O4583	O	0.499995	-0.375015	0.758139
	C4584	C	0.472939	-0.285979	0.847590
	C4585	C	0.477298	-0.374986	0.851447
	C4586	C	0.473025	-0.464056	0.847495
	C4587	C	0.464611	-0.464191	0.839789
	C4588	C	0.460247	-0.375119	0.835917
	C4589	C	0.464531	-0.286134	0.839898
	C4590	C	0.451196	-0.375133	0.827551
	C4591	C	0.486318	-0.374758	0.859850
	C4592	C	0.423813	-0.375023	0.827537
	C4593	C	0.414773	-0.374999	0.835965
	C4594	C	0.410423	-0.285861	0.839759
	C4595	C	0.402021	-0.285818	0.847473
	C4596	C	0.397771	-0.374976	0.851516
	C4597	C	0.402148	-0.464007	0.847738
	C4598	C	0.410545	-0.464093	0.840031
	C4599	C	0.388713	-0.374880	0.859878
	C4600	C	0.423863	-0.125173	0.797380
	C4601	C	0.414815	-0.124866	0.789016
	C4602	C	0.410454	-0.035670	0.785190
	C4603	C	0.402030	-0.035756	0.777499
	C4604	C	0.397777	-0.124867	0.773455
	C4605	C	0.402131	-0.213890	0.777331
	C4606	C	0.410533	-0.213910	0.785026
	C4607	C	0.388714	-0.125125	0.765122
	C4608	C	0.451252	-0.124922	0.797413
	C4609	C	0.460257	-0.125222	0.788992
	C4610	C	0.464595	-0.214169	0.785076
	C4611	C	0.472976	-0.213887	0.777313
	C4612	C	0.477254	-0.124741	0.773373
	C4613	C	0.472915	-0.035845	0.777299
	C4614	C	0.464534	-0.035949	0.785047
	C4615	C	0.486282	-0.124504	0.764986
	H4616	H	0.476236	-0.282664	0.774285
	H4617	H	0.461391	-0.283350	0.788140
	H4618	H	0.476148	-0.217103	0.850673
	H4619	H	0.461252	-0.216891	0.836924
	H4620	H	0.437414	-0.374972	0.795269
	H4621	H	0.437474	-0.125228	0.829642
	H4622	H	0.374994	-0.125029	0.857764
	H4623	H	0.500080	-0.374888	0.767123
	H4624	H	0.413778	-0.283118	0.788001
	H4625	H	0.398883	-0.283046	0.774303
	H4626	H	0.398733	-0.216862	0.850381
	H4627	H	0.413601	-0.216900	0.836606
	H4628	H	0.398700	0.033222	0.774588
	H4629	H	0.413649	0.033015	0.788340
	H4630	H	0.413870	-0.533273	0.837119
	H4631	H	0.398951	-0.532842	0.850877
	H4632	H	0.461395	-0.533039	0.836693
	H4633	H	0.476323	-0.533060	0.850479
	H4634	H	0.461284	0.033036	0.788101
	H4635	H	0.476118	0.033208	0.774271
	Al4636	Al	0.437563	-0.000108	0.812477
	Al4637	Al	0.437518	0.249669	0.812506
	Al4638	Al	0.375008	0.250231	0.749977
	Al4639	Al	0.375050	0.000115	0.750037
	O4640	O	0.447657	0.040569	0.824360
	O4641	O	0.437523	0.124887	0.804278
	O4642	O	0.437522	0.374638	0.820707
	O4643	O	0.489922	0.040611	0.863033
	O4644	O	0.427381	0.040606	0.824412
	O4645	O	0.385077	0.040742	0.862953
	O4646	O	0.427382	0.208736	0.824380
	O4647	O	0.427449	0.290814	0.800522
	O4648	O	0.385160	0.290958	0.761823
	O4649	O	0.447607	0.208638	0.824459
	O4650	O	0.447670	0.291007	0.800666
	O4651	O	0.489863	0.290972	0.761865
	O4652	O	0.385099	0.208866	0.862941
	O4653	O	0.427394	0.459005	0.800571
	O4654	O	0.385131	0.459358	0.761929
	O4655	O	0.489815	0.459314	0.761803
	O4656	O	0.447608	0.459031	0.800573
	O4657	O	0.489886	0.208625	0.863079
	O4658	O	0.375053	0.374821	0.866698
	O4659	O	0.499974	0.124974	0.758129
	C4660	C	0.472978	0.214010	0.847521
	C4661	C	0.477298	0.124876	0.851442
	C4662	C	0.472956	0.035997	0.847577
	C4663	C	0.464553	0.035992	0.839863
	C4664	C	0.460252	0.124931	0.835932
	C4665	C	0.464554	0.214006	0.839842
	C4666	C	0.451189	0.124540	0.827608
	C4667	C	0.486318	0.124696	0.859870
	C4668	C	0.423812	0.124692	0.827589
	C4669	C	0.414786	0.124773	0.835947
	C4670	C	0.410441	0.213758	0.839849
	C4671	C	0.402032	0.214065	0.847549
	C4672	C	0.397735	0.125030	0.851495
	C4673	C	0.402098	0.036072	0.847627
	C4674	C	0.410505	0.035851	0.839938
	C4675	C	0.388663	0.124760	0.859774
	C4676	C	0.423852	0.374993	0.797332
	C4677	C	0.414773	0.375040	0.788999
	C4678	C	0.410445	0.464101	0.785083
	C4679	C	0.402035	0.464092	0.777389
	C4680	C	0.397768	0.375091	0.773427
	C4681	C	0.402102	0.286068	0.777288
	C4682	C	0.410522	0.286150	0.784980
	C4683	C	0.388718	0.375161	0.765090
	C4684	C	0.451198	0.375150	0.797410
	C4685	C	0.460190	0.374891	0.788971
	C4686	C	0.464496	0.285768	0.785000
	C4687	C	0.472893	0.285752	0.777312
	C4688	C	0.477221	0.374961	0.773401
	C4689	C	0.472933	0.463919	0.777410
	C4690	C	0.464530	0.463905	0.785105
	C4691	C	0.486255	0.375151	0.765005
	H4692	H	0.476121	0.216883	0.774238
	H4693	H	0.461237	0.216655	0.788035
	H4694	H	0.476201	0.283011	0.850590
	H4695	H	0.461277	0.282750	0.836853
	H4696	H	0.437469	0.125219	0.795326
	H4697	H	0.437400	0.374693	0.829731
	H4698	H	0.374994	0.375248	0.857725
	H4699	H	0.499915	0.125179	0.767120
	H4700	H	0.413826	0.217323	0.787896
	H4701	H	0.398872	0.217141	0.774214
	H4702	H	0.398734	0.282536	0.850497
	H4703	H	0.413692	0.282893	0.836780
	H4704	H	0.398802	0.533104	0.774388
	H4705	H	0.413691	0.533063	0.788085
	H4706	H	0.413807	-0.033042	0.836997
	H4707	H	0.398842	-0.032826	0.850639
	H4708	H	0.461253	-0.033119	0.836912
	H4709	H	0.476169	-0.032949	0.850638
	H4710	H	0.461285	0.533088	0.788170
	H4711	H	0.476178	0.533015	0.774392
	Al4712	Al	0.437507	-0.500061	0.937542
	Al4713	Al	0.437552	-0.249939	0.937463
	Al4714	Al	0.375018	-0.250310	0.874951
	Al4715	Al	0.375021	-0.500341	0.874954
	O4716	O	0.447611	-0.459169	0.949463
	O4717	O	0.437486	-0.375064	0.929332
	O4718	O	0.437500	-0.125071	0.945685
	O4719	O	0.489851	-0.459152	0.988227
	O4720	O	0.427401	-0.458666	0.949452
	O4721	O	0.385132	-0.459015	0.988054
	O4722	O	0.427380	-0.290528	0.949358
	O4723	O	0.427437	-0.209462	0.925551
	O4724	O	0.385094	-0.208968	0.886915
	O4725	O	0.447622	-0.290858	0.949440
	O4726	O	0.447633	-0.209363	0.925550
	O4727	O	0.489917	-0.209263	0.886849
	O4728	O	0.385111	-0.290765	0.988065
	O4729	O	0.427453	-0.041313	0.925540
	O4730	O	0.385132	-0.040700	0.886894
	O4731	O	0.489894	-0.041132	0.886880
	O4732	O	0.447650	-0.041041	0.925590
	O4733	O	0.489906	-0.291021	0.988141
	O4734	O	0.375001	-0.124885	0.991807
	O4735	O	0.499940	-0.374772	0.883126
	C4736	C	0.472961	-0.285682	0.972598
	C4737	C	0.477308	-0.374906	0.976516
	C4738	C	0.472979	-0.464085	0.972626
	C4739	C	0.464587	-0.464138	0.964906
	C4740	C	0.460274	-0.375049	0.960918
	C4741	C	0.464556	-0.285729	0.964897
	C4742	C	0.451220	-0.374940	0.952568
	C4743	C	0.486339	-0.374918	0.984923
	C4744	C	0.423817	-0.374487	0.952599
	C4745	C	0.414796	-0.374960	0.961001
	C4746	C	0.410487	-0.285960	0.964931
	C4747	C	0.402073	-0.286018	0.972640
	C4748	C	0.397747	-0.374898	0.976536
	C4749	C	0.402098	-0.463911	0.972656
	C4750	C	0.410505	-0.464112	0.964952
	C4751	C	0.388697	-0.374887	0.984902
	C4752	C	0.423885	-0.125282	0.922333
	C4753	C	0.414811	-0.125504	0.913985
	C4754	C	0.410490	-0.036352	0.910091
	C4755	C	0.402056	-0.036431	0.902429
	C4756	C	0.397736	-0.125310	0.898483
	C4757	C	0.402054	-0.214497	0.902388
	C4758	C	0.410488	-0.214532	0.910061
	C4759	C	0.388704	-0.125001	0.890089
	C4760	C	0.451225	-0.125006	0.922415
	C4761	C	0.460273	-0.125478	0.914038
	C4762	C	0.464589	-0.214730	0.910102
	C4763	C	0.473006	-0.214430	0.902406
	C4764	C	0.477296	-0.125133	0.898476
	C4765	C	0.472980	-0.035984	0.902403
	C4766	C	0.464567	-0.036171	0.910115
	C4767	C	0.486352	-0.125340	0.890107
	H4768	H	0.476278	-0.283673	0.899385
	H4769	H	0.461390	-0.283990	0.913141
	H4770	H	0.476246	-0.216501	0.975587
	H4771	H	0.461296	-0.216623	0.961832
	H4772	H	0.437318	-0.374956	0.920344
	H4773	H	0.437402	-0.124811	0.954671
	H4774	H	0.374951	-0.125200	0.982835
	H4775	H	0.499854	-0.374302	0.892119
	H4776	H	0.413752	-0.283588	0.912993
	H4777	H	0.398820	-0.283554	0.899319
	H4778	H	0.398790	-0.216981	0.975677
	H4779	H	0.413736	-0.217071	0.961965
	H4780	H	0.398838	0.032886	0.899413
	H4781	H	0.413775	0.032718	0.913044
	H4782	H	0.413780	-0.533041	0.961968
	H4783	H	0.398859	-0.532838	0.975700
	H4784	H	0.461344	-0.533139	0.961853
	H4785	H	0.476264	-0.533182	0.975644
	H4786	H	0.461329	0.033041	0.913192
	H4787	H	0.476223	0.033115	0.899439
	Al4788	Al	0.437535	0.000114	0.937483
	Al4789	Al	0.437488	0.249768	0.937540
	Al4790	Al	0.375002	0.249875	0.874891
	Al4791	Al	0.375005	-0.000288	0.874950
	O4792	O	0.447617	0.041114	0.949456
	O4793	O	0.437523	0.124900	0.929311
	O4794	O	0.437426	0.374812	0.945732
	O4795	O	0.489838	0.040677	0.988226
	O4796	O	0.427402	0.040514	0.949394
	O4797	O	0.385122	0.040680	0.988054
	O4798	O	0.427406	0.208742	0.949472
	O4799	O	0.427397	0.290722	0.925554
	O4800	O	0.385150	0.290427	0.886819
	O4801	O	0.447657	0.209537	0.949377
	O4802	O	0.447593	0.290601	0.925652
	O4803	O	0.489926	0.290945	0.886966
	O4804	O	0.385085	0.208964	0.988042
	O4805	O	0.427391	0.459078	0.925548
	O4806	O	0.385178	0.458890	0.886789
	O4807	O	0.489904	0.459153	0.886910
	O4808	O	0.447617	0.458766	0.925669
	O4809	O	0.489959	0.209035	0.988043
	O4810	O	0.374951	0.375053	0.991814
	O4811	O	0.499978	0.124539	0.883209
	C4812	C	0.473026	0.214471	0.972527
	C4813	C	0.477274	0.125141	0.976564
	C4814	C	0.472927	0.035903	0.972703
	C4815	C	0.464512	0.035951	0.964994
	C4816	C	0.460245	0.125223	0.960994
	C4817	C	0.464604	0.214505	0.964827
	C4818	C	0.451205	0.125303	0.952612
	C4819	C	0.486324	0.125017	0.984964
	C4820	C	0.423839	0.124661	0.952599
	C4821	C	0.414794	0.124703	0.960987
	C4822	C	0.410486	0.213847	0.964906
	C4823	C	0.402082	0.213975	0.972587
	C4824	C	0.397714	0.124938	0.976454
	C4825	C	0.402040	0.035818	0.972575
	C4826	C	0.410444	0.035576	0.964885
	C4827	C	0.388676	0.124884	0.984853
	C4828	C	0.423814	0.374831	0.922409
	C4829	C	0.414758	0.374971	0.914016
	C4830	C	0.410471	0.464180	0.910009
	C4831	C	0.402073	0.464152	0.902299
	C4832	C	0.397729	0.374727	0.898456
	C4833	C	0.402017	0.285647	0.902430
	C4834	C	0.410430	0.285587	0.910125
	C4835	C	0.388680	0.374633	0.890085
	C4836	C	0.451162	0.374777	0.922411
	C4837	C	0.460224	0.374879	0.914069
	C4838	C	0.464544	0.285745	0.910122
	C4839	C	0.472963	0.285678	0.902429
	C4840	C	0.477273	0.374926	0.898492
	C4841	C	0.472952	0.464092	0.902433
	C4842	C	0.464535	0.464125	0.910132
	C4843	C	0.486339	0.374962	0.890126
	H4844	H	0.476171	0.216605	0.899353
	H4845	H	0.461250	0.216292	0.913051
	H4846	H	0.476297	0.283497	0.975486
	H4847	H	0.461403	0.283619	0.961731
	H4848	H	0.437456	0.124957	0.920286
	H4849	H	0.437397	0.374990	0.954683
	H4850	H	0.374994	0.374375	0.982820
	H4851	H	0.499935	0.124881	0.892174
	H4852	H	0.413650	0.216302	0.913265
	H4853	H	0.398732	0.216699	0.899493
	H4854	H	0.398858	0.283122	0.975622
	H4855	H	0.413783	0.282680	0.961885
	H4856	H	0.398813	0.532991	0.899244
	H4857	H	0.413748	0.533355	0.912980
	H4858	H	0.413675	-0.033495	0.961906
	H4859	H	0.398761	-0.032998	0.975600
	H4860	H	0.461231	-0.033194	0.962019
	H4861	H	0.476132	-0.032870	0.975788
	H4862	H	0.461262	0.533162	0.913097
	H4863	H	0.476228	0.533146	0.899430
	Al4864	Al	0.562478	-0.500477	0.062533
	Al4865	Al	0.562461	-0.250748	0.062540
	Al4866	Al	0.500041	-0.250104	0.000040
	Al4867	Al	0.500012	-0.499990	0.000070
	O4868	O	0.572607	-0.459034	0.074453
	O4869	O	0.562515	-0.375466	0.054314
	O4870	O	0.562496	-0.125534	0.070686
	O4871	O	0.614875	-0.459254	0.113092
	O4872	O	0.552383	-0.459561	0.074441
	O4873	O	0.510132	-0.459504	0.113110
	O4874	O	0.552400	-0.291286	0.074486
	O4875	O	0.552403	-0.209344	0.050571
	O4876	O	0.510130	-0.209292	0.011958
	O4877	O	0.572598	-0.290884	0.074437
	O4878	O	0.572541	-0.209530	0.050494
	O4879	O	0.614897	-0.209676	0.011951
	O4880	O	0.510124	-0.291259	0.113131
	O4881	O	0.552394	-0.041040	0.050582
	O4882	O	0.510104	-0.041039	0.011953
	O4883	O	0.614837	-0.041289	0.011879
	O4884	O	0.572564	-0.041346	0.050561
	O4885	O	0.614914	-0.291348	0.113043
	O4886	O	0.500049	-0.125415	0.116796
	O4887	O	0.624956	-0.375521	0.008239
	C4888	C	0.597989	-0.286214	0.097581
	C4889	C	0.602295	-0.375289	0.101479
	C4890	C	0.597972	-0.464268	0.097574
	C4891	C	0.589540	-0.464114	0.089894
	C4892	C	0.585226	-0.375180	0.085982
	C4893	C	0.589559	-0.286292	0.089905
	C4894	C	0.576162	-0.374823	0.077674
	C4895	C	0.611332	-0.375146	0.109860
	C4896	C	0.548835	-0.375219	0.077654
	C4897	C	0.539775	-0.375368	0.086026
	C4898	C	0.535484	-0.286033	0.089992
	C4899	C	0.527084	-0.286218	0.097676
	C4900	C	0.522742	-0.375360	0.101568
	C4901	C	0.527002	-0.464682	0.097511
	C4902	C	0.535399	-0.464587	0.089816
	C4903	C	0.513694	-0.375498	0.109927
	C4904	C	0.548826	-0.125059	0.047398
	C4905	C	0.539789	-0.124851	0.039003
	C4906	C	0.535495	-0.035910	0.035036
	C4907	C	0.527078	-0.035875	0.027362
	C4908	C	0.522741	-0.125016	0.023482
	C4909	C	0.527049	-0.214102	0.027408
	C4910	C	0.535464	-0.213972	0.035099
	C4911	C	0.513701	-0.125100	0.015138
	C4912	C	0.576145	-0.125561	0.047394
	C4913	C	0.585176	-0.125555	0.038981
	C4914	C	0.589472	-0.214519	0.035016
	C4915	C	0.597911	-0.214347	0.027357
	C4916	C	0.602240	-0.125410	0.023453
	C4917	C	0.597899	-0.036403	0.027329
	C4918	C	0.589476	-0.036556	0.035028
	C4919	C	0.611313	-0.125522	0.015130
	H4920	H	0.601209	-0.283213	0.024401
	H4921	H	0.586219	-0.283480	0.038049
	H4922	H	0.601235	-0.217112	0.100591
	H4923	H	0.586309	-0.217303	0.086937
	H4924	H	0.562781	-0.375929	0.045272
	H4925	H	0.562506	-0.124974	0.079677
	H4926	H	0.500178	-0.125574	0.107817
	H4927	H	0.624860	-0.375246	0.017229
	H4928	H	0.538683	-0.282853	0.038192
	H4929	H	0.523818	-0.283034	0.024381
	H4930	H	0.523820	-0.216964	0.100712
	H4931	H	0.538749	-0.216816	0.087008
	H4932	H	0.523859	0.033217	0.024252
	H4933	H	0.538726	0.033357	0.038067
	H4934	H	0.538644	-0.533650	0.086665
	H4935	H	0.523698	-0.533922	0.100375
	H4936	H	0.586265	-0.533309	0.086949
	H4937	H	0.601187	-0.533103	0.100613
	H4938	H	0.586256	0.032307	0.038064
	H4939	H	0.601166	0.032395	0.024371
	Al4940	Al	0.562488	-0.000254	0.062481
	Al4941	Al	0.562492	0.249774	0.062501
	Al4942	Al	0.499973	0.249983	0.000039
	Al4943	Al	0.499971	-0.000029	0.000115
	O4944	O	0.572570	0.040686	0.074444
	O4945	O	0.562460	0.124858	0.054322
	O4946	O	0.562585	0.374623	0.070729
	O4947	O	0.614888	0.040575	0.113119
	O4948	O	0.552404	0.041032	0.074485
	O4949	O	0.510130	0.040868	0.113061
	O4950	O	0.552408	0.209137	0.074447
	O4951	O	0.552428	0.290934	0.050541
	O4952	O	0.510071	0.290543	0.011996
	O4953	O	0.572615	0.208767	0.074442
	O4954	O	0.572559	0.290712	0.050523
	O4955	O	0.614917	0.290863	0.011919
	O4956	O	0.510163	0.209109	0.113084
	O4957	O	0.552387	0.458969	0.050555
	O4958	O	0.510065	0.458799	0.012043
	O4959	O	0.614901	0.458731	0.011940
	O4960	O	0.572608	0.458928	0.050550
	O4961	O	0.614903	0.208690	0.113095
	O4962	O	0.499988	0.374929	0.116786
	O4963	O	0.624964	0.124755	0.008240
	C4964	C	0.597971	0.213658	0.097621
	C4965	C	0.602303	0.124620	0.101520
	C4966	C	0.597984	0.035848	0.097564
	C4967	C	0.589563	0.035963	0.089889
	C4968	C	0.585228	0.124902	0.085968
	C4969	C	0.589549	0.213880	0.089920
	C4970	C	0.576175	0.124847	0.077616
	C4971	C	0.611333	0.124493	0.109871
	C4972	C	0.548833	0.124974	0.077615
	C4973	C	0.539749	0.125072	0.085914
	C4974	C	0.535500	0.214160	0.089986
	C4975	C	0.527088	0.214030	0.097646
	C4976	C	0.522685	0.124961	0.101411
	C4977	C	0.526983	0.035783	0.097452
	C4978	C	0.535398	0.035843	0.089804
	C4979	C	0.513699	0.124826	0.109851
	C4980	C	0.548817	0.374789	0.047341
	C4981	C	0.539811	0.374547	0.038930
	C4982	C	0.535494	0.463531	0.035039
	C4983	C	0.527064	0.463642	0.027390
	C4984	C	0.522732	0.374692	0.023485
	C4985	C	0.527061	0.285807	0.027400
	C4986	C	0.535477	0.285631	0.035077
	C4987	C	0.513655	0.374724	0.015187
	C4988	C	0.576122	0.374896	0.047307
	C4989	C	0.585178	0.374952	0.038933
	C4990	C	0.589499	0.286066	0.035004
	C4991	C	0.597922	0.285965	0.027348
	C4992	C	0.602247	0.374796	0.023432
	C4993	C	0.597924	0.463818	0.027328
	C4994	C	0.589495	0.463899	0.034999
	C4995	C	0.611296	0.374654	0.015090
	H4996	H	0.601152	0.216918	0.024322
	H4997	H	0.586209	0.217039	0.037970
	H4998	H	0.601251	0.282570	0.100653
	H4999	H	0.586330	0.282807	0.086910
	H5000	H	0.562435	0.124572	0.045361
	H5001	H	0.562738	0.374809	0.079740
	H5002	H	0.499998	0.375036	0.107794
	H5003	H	0.624949	0.125684	0.017224
	H5004	H	0.538706	0.216459	0.038127
	H5005	H	0.523782	0.216934	0.024432
	H5006	H	0.523896	0.282945	0.100839
	H5007	H	0.538870	0.283041	0.087110
	H5008	H	0.523805	0.532754	0.024391
	H5009	H	0.538726	0.532433	0.038041
	H5010	H	0.538666	-0.033372	0.086823
	H5011	H	0.523705	-0.033247	0.100472
	H5012	H	0.586291	-0.032798	0.086833
	H5013	H	0.601256	-0.033027	0.100525
	H5014	H	0.586219	0.532961	0.037943
	H5015	H	0.601165	0.532591	0.024279
	Al5016	Al	0.562549	-0.500290	0.187526
	Al5017	Al	0.562515	-0.250206	0.187534
	Al5018	Al	0.500027	-0.250287	0.125038
	Al5019	Al	0.499989	-0.500162	0.125017
	O5020	O	0.572632	-0.459672	0.199473
	O5021	O	0.562517	-0.375226	0.179323
	O5022	O	0.562541	-0.125180	0.195722
	O5023	O	0.614913	-0.459613	0.238086
	O5024	O	0.552421	-0.459148	0.199445
	O5025	O	0.510142	-0.459486	0.238203
	O5026	O	0.552449	-0.290846	0.199524
	O5027	O	0.552421	-0.209442	0.175644
	O5028	O	0.510125	-0.209219	0.136952
	O5029	O	0.572637	-0.291372	0.199417
	O5030	O	0.572624	-0.209135	0.175639
	O5031	O	0.614875	-0.209685	0.136992
	O5032	O	0.510104	-0.291395	0.238131
	O5033	O	0.552389	-0.041133	0.175640
	O5034	O	0.510123	-0.041273	0.136951
	O5035	O	0.614914	-0.041289	0.136921
	O5036	O	0.572586	-0.040845	0.175620
	O5037	O	0.614883	-0.291272	0.238162
	O5038	O	0.500040	-0.125148	0.241910
	O5039	O	0.625014	-0.375226	0.133219
	C5040	C	0.597976	-0.286034	0.222646
	C5041	C	0.602292	-0.375401	0.226576
	C5042	C	0.597959	-0.464765	0.222689
	C5043	C	0.589541	-0.464783	0.215020
	C5044	C	0.585237	-0.375391	0.211036
	C5045	C	0.589573	-0.286154	0.214942
	C5046	C	0.576190	-0.375413	0.202637
	C5047	C	0.611341	-0.375254	0.234915
	C5048	C	0.548849	-0.374959	0.202671
	C5049	C	0.539798	-0.374919	0.210981
	C5050	C	0.535504	-0.286009	0.215011
	C5051	C	0.527076	-0.286057	0.222684
	C5052	C	0.522713	-0.375257	0.226522
	C5053	C	0.526999	-0.464190	0.222486
	C5054	C	0.535425	-0.464013	0.214808
	C5055	C	0.513671	-0.375414	0.234924
	C5056	C	0.548838	-0.125267	0.172456
	C5057	C	0.539795	-0.125379	0.164099
	C5058	C	0.535530	-0.036441	0.160088
	C5059	C	0.527116	-0.036328	0.152394
	C5060	C	0.522756	-0.125391	0.148548
	C5061	C	0.527019	-0.214281	0.152597
	C5062	C	0.535429	-0.214261	0.160276
	C5063	C	0.513717	-0.125181	0.140131
	C5064	C	0.576173	-0.124880	0.172454
	C5065	C	0.585220	-0.125032	0.164041
	C5066	C	0.589540	-0.214207	0.160142
	C5067	C	0.597955	-0.214462	0.152446
	C5068	C	0.602280	-0.125165	0.148519
	C5069	C	0.597968	-0.035878	0.152454
	C5070	C	0.589550	-0.035829	0.160137
	C5071	C	0.611329	-0.125247	0.140136
	H5072	H	0.601207	-0.283590	0.149432
	H5073	H	0.586269	-0.283358	0.163138
	H5074	H	0.601252	-0.217012	0.225633
	H5075	H	0.586309	-0.217131	0.211911
	H5076	H	0.562578	-0.375671	0.170355
	H5077	H	0.562515	-0.124747	0.204746
	H5078	H	0.500030	-0.125087	0.232928
	H5079	H	0.624996	-0.376079	0.142192
	H5080	H	0.538622	-0.283236	0.163338
	H5081	H	0.523740	-0.283217	0.149646
	H5082	H	0.523840	-0.217008	0.225772
	H5083	H	0.538793	-0.216867	0.212083
	H5084	H	0.523905	0.032505	0.149279
	H5085	H	0.538814	0.032724	0.163006
	H5086	H	0.538659	-0.533229	0.211712
	H5087	H	0.523709	-0.533395	0.225414
	H5088	H	0.586251	-0.533967	0.212026
	H5089	H	0.601178	-0.533731	0.225742
	H5090	H	0.586271	0.033287	0.163111
	H5091	H	0.601253	0.033468	0.149473
	Al5092	Al	0.562494	0.000156	0.187541
	Al5093	Al	0.562504	0.250037	0.187542
	Al5094	Al	0.500014	0.249791	0.124952
	Al5095	Al	0.500046	-0.000465	0.124975
	O5096	O	0.572614	0.041061	0.199473
	O5097	O	0.562527	0.124968	0.179349
	O5098	O	0.562512	0.374948	0.195714
	O5099	O	0.614881	0.040892	0.238122
	O5100	O	0.552427	0.040841	0.199472
	O5101	O	0.510138	0.040987	0.238196
	O5102	O	0.552440	0.209019	0.199502
	O5103	O	0.552396	0.290840	0.175624
	O5104	O	0.510135	0.290808	0.136968
	O5105	O	0.572636	0.209244	0.199440
	O5106	O	0.572584	0.291185	0.175613
	O5107	O	0.614878	0.291032	0.136949
	O5108	O	0.510195	0.209088	0.238246
	O5109	O	0.552459	0.459117	0.175534
	O5110	O	0.510119	0.458938	0.136918
	O5111	O	0.614905	0.458953	0.136985
	O5112	O	0.572691	0.459050	0.175656
	O5113	O	0.614928	0.209132	0.238089
	O5114	O	0.500085	0.374620	0.241873
	O5115	O	0.624993	0.124879	0.133221
	C5116	C	0.597931	0.213979	0.222693
	C5117	C	0.602269	0.124958	0.226577
	C5118	C	0.597952	0.035916	0.222663
	C5119	C	0.589532	0.035796	0.214971
	C5120	C	0.585229	0.124868	0.211047
	C5121	C	0.589529	0.213888	0.214998
	C5122	C	0.576181	0.125121	0.202664
	C5123	C	0.611343	0.124949	0.234926
	C5124	C	0.548863	0.125060	0.202695
	C5125	C	0.539777	0.125014	0.210993
	C5126	C	0.535512	0.213998	0.215001
	C5127	C	0.527094	0.213882	0.222680
	C5128	C	0.522737	0.125011	0.226561
	C5129	C	0.526990	0.035993	0.222554
	C5130	C	0.535405	0.036132	0.214865
	C5131	C	0.513715	0.124774	0.234979
	C5132	C	0.548839	0.375021	0.172434
	C5133	C	0.539801	0.375163	0.164063
	C5134	C	0.535569	0.463939	0.160059
	C5135	C	0.527140	0.463994	0.152360
	C5136	C	0.522734	0.375235	0.148571
	C5137	C	0.526989	0.286452	0.152588
	C5138	C	0.535421	0.286445	0.160271
	C5139	C	0.513696	0.375235	0.140180
	C5140	C	0.576210	0.375083	0.172444
	C5141	C	0.585226	0.374855	0.164050
	C5142	C	0.589529	0.285808	0.160081
	C5143	C	0.597940	0.285860	0.152372
	C5144	C	0.602289	0.375062	0.148509
	C5145	C	0.597948	0.464151	0.152429
	C5146	C	0.589545	0.464085	0.160136
	C5147	C	0.611318	0.374930	0.140130
	H5148	H	0.601190	0.216621	0.149351
	H5149	H	0.586249	0.216842	0.163043
	H5150	H	0.601173	0.282755	0.225739
	H5151	H	0.586282	0.282846	0.211977
	H5152	H	0.562567	0.124456	0.170322
	H5153	H	0.562509	0.375039	0.204675
	H5154	H	0.500392	0.374979	0.232903
	H5155	H	0.624970	0.124642	0.142221
	H5156	H	0.538581	0.217693	0.163427
	H5157	H	0.523693	0.217451	0.149683
	H5158	H	0.523833	0.282820	0.225773
	H5159	H	0.538816	0.282941	0.212093
	H5160	H	0.523942	0.532866	0.149263
	H5161	H	0.538850	0.532673	0.163021
	H5162	H	0.538637	-0.032846	0.211807
	H5163	H	0.523701	-0.033095	0.225497
	H5164	H	0.586269	-0.033092	0.211973
	H5165	H	0.601216	-0.032784	0.225685
	H5166	H	0.586290	0.533051	0.163122
	H5167	H	0.601186	0.533084	0.149434
	Al5168	Al	0.562515	-0.500089	0.312675
	Al5169	Al	0.562495	-0.250304	0.312743
	Al5170	Al	0.499993	-0.250407	0.250101
	Al5171	Al	0.500018	-0.500429	0.250108
	O5172	O	0.572635	-0.459262	0.324598
	O5173	O	0.562585	-0.375065	0.304476
	O5174	O	0.562497	-0.124855	0.320889
	O5175	O	0.614978	-0.459479	0.363221
	O5176	O	0.552419	-0.459171	0.324576
	O5177	O	0.510150	-0.458955	0.363244
	O5178	O	0.552380	-0.291069	0.324579
	O5179	O	0.552381	-0.209414	0.300771
	O5180	O	0.510136	-0.209176	0.262050
	O5181	O	0.572638	-0.290993	0.324650
	O5182	O	0.572572	-0.208946	0.300739
	O5183	O	0.614891	-0.208635	0.262035
	O5184	O	0.510090	-0.290844	0.363187
	O5185	O	0.552405	-0.041157	0.300720
	O5186	O	0.510128	-0.040843	0.262098
	O5187	O	0.614854	-0.040707	0.262002
	O5188	O	0.572584	-0.040798	0.300706
	O5189	O	0.614920	-0.291304	0.363301
	O5190	O	0.500003	-0.125162	0.366939
	O5191	O	0.624948	-0.374934	0.258304
	C5192	C	0.598021	-0.286438	0.347735
	C5193	C	0.602324	-0.375421	0.351698
	C5194	C	0.598013	-0.464584	0.347785
	C5195	C	0.589572	-0.464250	0.340117
	C5196	C	0.585253	-0.375370	0.336171
	C5197	C	0.589596	-0.286287	0.340058
	C5198	C	0.576188	-0.375070	0.327867
	C5199	C	0.611373	-0.375362	0.360083
	C5200	C	0.548824	-0.375303	0.327742
	C5201	C	0.539777	-0.375192	0.336081
	C5202	C	0.535428	-0.285955	0.339895
	C5203	C	0.527004	-0.285971	0.347583
	C5204	C	0.522725	-0.375039	0.351621
	C5205	C	0.527084	-0.464241	0.347783
	C5206	C	0.535503	-0.464322	0.340099
	C5207	C	0.513691	-0.374854	0.360008
	C5208	C	0.548823	-0.125330	0.297555
	C5209	C	0.539821	-0.125026	0.289138
	C5210	C	0.535507	-0.035837	0.285165
	C5211	C	0.527094	-0.035749	0.277484
	C5212	C	0.522757	-0.124994	0.273606
	C5213	C	0.527106	-0.214181	0.277494
	C5214	C	0.535514	-0.214175	0.285199
	C5215	C	0.513698	-0.125038	0.265250
	C5216	C	0.576149	-0.124942	0.297516
	C5217	C	0.585192	-0.125024	0.289136
	C5218	C	0.589526	-0.213915	0.285206
	C5219	C	0.597942	-0.213800	0.277507
	C5220	C	0.602254	-0.124805	0.273606
	C5221	C	0.597983	-0.035857	0.277644
	C5222	C	0.589565	-0.035997	0.285342
	C5223	C	0.611294	-0.124699	0.265232
	H5224	H	0.601176	-0.282947	0.274470
	H5225	H	0.586283	-0.282982	0.288228
	H5226	H	0.601267	-0.217431	0.350759
	H5227	H	0.586345	-0.217118	0.337090
	H5228	H	0.562730	-0.375913	0.295514
	H5229	H	0.562429	-0.124415	0.329890
	H5230	H	0.500022	-0.125604	0.357927
	H5231	H	0.624976	-0.374750	0.267298
	H5232	H	0.538758	-0.283437	0.288252
	H5233	H	0.523848	-0.283344	0.274470
	H5234	H	0.523719	-0.216682	0.350546
	H5235	H	0.538646	-0.217048	0.336752
	H5236	H	0.523839	0.033468	0.274456
	H5237	H	0.538753	0.033160	0.288197
	H5238	H	0.538786	-0.533693	0.337149
	H5239	H	0.523886	-0.533302	0.350937
	H5240	H	0.586282	-0.533157	0.337165
	H5241	H	0.601263	-0.533419	0.350830
	H5242	H	0.586386	0.032968	0.288492
	H5243	H	0.601249	0.033230	0.274692
	Al5244	Al	0.562477	-0.000063	0.312608
	Al5245	Al	0.562523	0.249886	0.312666
	Al5246	Al	0.500038	0.249571	0.250098
	Al5247	Al	0.500022	-0.000299	0.250117
	O5248	O	0.572612	0.040513	0.324603
	O5249	O	0.562520	0.125135	0.304453
	O5250	O	0.562538	0.375046	0.320869
	O5251	O	0.614965	0.041191	0.363184
	O5252	O	0.552397	0.041127	0.324612
	O5253	O	0.510116	0.040958	0.363254
	O5254	O	0.552420	0.209186	0.324603
	O5255	O	0.552405	0.291189	0.300804
	O5256	O	0.510117	0.291435	0.262049
	O5257	O	0.572590	0.208699	0.324616
	O5258	O	0.572592	0.290739	0.300733
	O5259	O	0.614871	0.290517	0.262003
	O5260	O	0.510085	0.209096	0.363211
	O5261	O	0.552410	0.459592	0.300758
	O5262	O	0.510096	0.459469	0.262122
	O5263	O	0.614898	0.458804	0.261946
	O5264	O	0.572600	0.458788	0.300683
	O5265	O	0.614909	0.209257	0.363259
	O5266	O	0.500075	0.375008	0.366940
	O5267	O	0.625047	0.125030	0.258259
	C5268	C	0.597955	0.214072	0.347774
	C5269	C	0.602285	0.125046	0.351681
	C5270	C	0.597984	0.035872	0.347750
	C5271	C	0.589530	0.035596	0.340105
	C5272	C	0.585211	0.124669	0.336205
	C5273	C	0.589512	0.213840	0.340119
	C5274	C	0.576165	0.124556	0.327799
	C5275	C	0.611376	0.125235	0.360025
	C5276	C	0.548826	0.125315	0.327777
	C5277	C	0.539788	0.125049	0.336152
	C5278	C	0.535429	0.214010	0.340014
	C5279	C	0.527003	0.214226	0.347697
	C5280	C	0.522698	0.125147	0.351652
	C5281	C	0.527033	0.035988	0.347741
	C5282	C	0.535467	0.035968	0.340071
	C5283	C	0.513666	0.125153	0.360020
	C5284	C	0.548860	0.375327	0.297573
	C5285	C	0.539819	0.375130	0.289158
	C5286	C	0.535519	0.464417	0.285233
	C5287	C	0.527088	0.464522	0.277565
	C5288	C	0.522738	0.375312	0.273661
	C5289	C	0.527028	0.286057	0.277592
	C5290	C	0.535458	0.285972	0.285277
	C5291	C	0.513700	0.375368	0.265237
	C5292	C	0.576193	0.374592	0.297544
	C5293	C	0.585217	0.374703	0.289139
	C5294	C	0.589511	0.285689	0.285155
	C5295	C	0.597921	0.285700	0.277429
	C5296	C	0.602272	0.374869	0.273562
	C5297	C	0.597938	0.463848	0.277497
	C5298	C	0.589538	0.463941	0.285217
	C5299	C	0.611318	0.374720	0.265174
	H5300	H	0.601151	0.216748	0.274375
	H5301	H	0.586259	0.216635	0.288126
	H5302	H	0.601195	0.283300	0.350748
	H5303	H	0.586254	0.282755	0.337102
	H5304	H	0.562788	0.125104	0.295440
	H5305	H	0.562586	0.374709	0.329890
	H5306	H	0.500261	0.374618	0.357956
	H5307	H	0.625013	0.125437	0.267275
	H5308	H	0.538721	0.216684	0.288296
	H5309	H	0.523769	0.217322	0.274577
	H5310	H	0.523716	0.283336	0.350599
	H5311	H	0.538637	0.283115	0.336920
	H5312	H	0.523882	0.533703	0.274514
	H5313	H	0.538792	0.533496	0.288195
	H5314	H	0.538702	-0.033218	0.337045
	H5315	H	0.523781	-0.033174	0.350728
	H5316	H	0.586310	-0.033641	0.337083
	H5317	H	0.601251	-0.033298	0.350710
	H5318	H	0.586309	0.533063	0.288285
	H5319	H	0.601181	0.533027	0.274540
	Al5320	Al	0.562459	-0.500447	0.437620
	Al5321	Al	0.562472	-0.250364	0.437642
	Al5322	Al	0.500000	-0.250085	0.375159
	Al5323	Al	0.500000	-0.500162	0.375143
	O5324	O	0.572604	-0.458964	0.449507
	O5325	O	0.562435	-0.375406	0.429416
	O5326	O	0.562431	-0.125004	0.445800
	O5327	O	0.614927	-0.459005	0.488073
	O5328	O	0.552351	-0.459430	0.449493
	O5329	O	0.510090	-0.458988	0.488176
	O5330	O	0.552357	-0.291186	0.449515
	O5331	O	0.552394	-0.209139	0.425660
	O5332	O	0.510093	-0.209066	0.387087
	O5333	O	0.572586	-0.290822	0.449521
	O5334	O	0.572564	-0.209545	0.425692
	O5335	O	0.614929	-0.209389	0.387188
	O5336	O	0.510065	-0.290729	0.488158
	O5337	O	0.552407	-0.041024	0.425589
	O5338	O	0.510107	-0.040864	0.387066
	O5339	O	0.614899	-0.041221	0.387112
	O5340	O	0.572624	-0.041322	0.425731
	O5341	O	0.614879	-0.290983	0.488161
	O5342	O	0.499994	-0.125033	0.491869
	O5343	O	0.625047	-0.375095	0.383451
	C5344	C	0.597935	-0.286045	0.472667
	C5345	C	0.602254	-0.374943	0.476561
	C5346	C	0.597950	-0.463943	0.472651
	C5347	C	0.589533	-0.463954	0.464972
	C5348	C	0.585195	-0.375078	0.461105
	C5349	C	0.589510	-0.286040	0.464992
	C5350	C	0.576166	-0.374824	0.452694
	C5351	C	0.611301	-0.375034	0.484950
	C5352	C	0.548775	-0.375235	0.452726
	C5353	C	0.539741	-0.375284	0.461076
	C5354	C	0.535452	-0.285994	0.465010
	C5355	C	0.527041	-0.285636	0.472705
	C5356	C	0.522712	-0.374697	0.476648
	C5357	C	0.526996	-0.463902	0.472694
	C5358	C	0.535403	-0.464344	0.465009
	C5359	C	0.513657	-0.374705	0.485012
	C5360	C	0.548842	-0.125152	0.422445
	C5361	C	0.539758	-0.125060	0.414140
	C5362	C	0.535466	-0.035972	0.410196
	C5363	C	0.527039	-0.036018	0.402510
	C5364	C	0.522707	-0.125110	0.398626
	C5365	C	0.526989	-0.214106	0.402621
	C5366	C	0.535418	-0.214158	0.410313
	C5367	C	0.513659	-0.125061	0.390269
	C5368	C	0.576145	-0.125479	0.422495
	C5369	C	0.585189	-0.125778	0.414155
	C5370	C	0.589514	-0.214912	0.410224
	C5371	C	0.597938	-0.214663	0.402539
	C5372	C	0.602258	-0.125321	0.398643
	C5373	C	0.597945	-0.036294	0.402630
	C5374	C	0.589533	-0.036422	0.410306
	C5375	C	0.611313	-0.125181	0.390312
	H5376	H	0.601188	-0.283713	0.399437
	H5377	H	0.586245	-0.284213	0.413187
	H5378	H	0.601163	-0.217007	0.475710
	H5379	H	0.586279	-0.217148	0.461979
	H5380	H	0.562344	-0.374788	0.420429
	H5381	H	0.562473	-0.124677	0.454720
	H5382	H	0.499998	-0.124929	0.482908
	H5383	H	0.625005	-0.374835	0.392412
	H5384	H	0.538662	-0.283111	0.413356
	H5385	H	0.523716	-0.283137	0.399686
	H5386	H	0.523797	-0.216685	0.475745
	H5387	H	0.538728	-0.216765	0.461972
	H5388	H	0.523803	0.033142	0.399474
	H5389	H	0.538745	0.033328	0.413144
	H5390	H	0.538635	-0.533397	0.462019
	H5391	H	0.523739	-0.532780	0.475735
	H5392	H	0.586302	-0.533036	0.461950
	H5393	H	0.601180	-0.533000	0.475661
	H5394	H	0.586296	0.032589	0.413399
	H5395	H	0.601191	0.032865	0.399634
	Al5396	Al	0.562478	-0.000045	0.437542
	Al5397	Al	0.562490	0.249758	0.437621
	Al5398	Al	0.499972	0.249883	0.375123
	Al5399	Al	0.500015	-0.000163	0.375144
	O5400	O	0.572538	0.040656	0.449540
	O5401	O	0.562493	0.125055	0.429365
	O5402	O	0.562549	0.374824	0.445831
	O5403	O	0.614924	0.040606	0.488082
	O5404	O	0.552365	0.041068	0.449438
	O5405	O	0.510107	0.041233	0.488161
	O5406	O	0.552365	0.209189	0.449488
	O5407	O	0.552343	0.290676	0.425738
	O5408	O	0.510100	0.290940	0.387044
	O5409	O	0.572618	0.208649	0.449497
	O5410	O	0.572554	0.290576	0.425676
	O5411	O	0.614918	0.290838	0.387178
	O5412	O	0.510124	0.209587	0.488194
	O5413	O	0.552396	0.458931	0.425646
	O5414	O	0.510101	0.459276	0.387051
	O5415	O	0.614864	0.459122	0.387131
	O5416	O	0.572588	0.458881	0.425672
	O5417	O	0.614905	0.208860	0.488182
	O5418	O	0.499967	0.375062	0.491900
	O5419	O	0.624996	0.124873	0.383436
	C5420	C	0.597950	0.213587	0.472661
	C5421	C	0.602269	0.124578	0.476601
	C5422	C	0.597916	0.035429	0.472735
	C5423	C	0.589509	0.035626	0.465059
	C5424	C	0.585199	0.124720	0.461091
	C5425	C	0.589545	0.213761	0.464977
	C5426	C	0.576154	0.124588	0.452690
	C5427	C	0.611329	0.124750	0.484954
	C5428	C	0.548787	0.125252	0.452660
	C5429	C	0.539753	0.125094	0.461048
	C5430	C	0.535455	0.214099	0.464950
	C5431	C	0.527035	0.214319	0.472666
	C5432	C	0.522727	0.125271	0.476605
	C5433	C	0.527044	0.036246	0.472732
	C5434	C	0.535466	0.036076	0.465013
	C5435	C	0.513670	0.125363	0.484995
	C5436	C	0.548807	0.374782	0.422507
	C5437	C	0.539727	0.374985	0.414184
	C5438	C	0.535448	0.464151	0.410226
	C5439	C	0.527040	0.463956	0.402554
	C5440	C	0.522693	0.374921	0.398666
	C5441	C	0.526996	0.285813	0.402597
	C5442	C	0.535414	0.285896	0.410269
	C5443	C	0.513649	0.375213	0.390281
	C5444	C	0.576146	0.374819	0.422509
	C5445	C	0.585192	0.374741	0.414151
	C5446	C	0.589476	0.285615	0.410152
	C5447	C	0.597897	0.285602	0.402482
	C5448	C	0.602248	0.374839	0.398648
	C5449	C	0.597930	0.464181	0.402611
	C5450	C	0.589521	0.464208	0.410285
	C5451	C	0.611327	0.374971	0.390319
	H5452	H	0.601117	0.216604	0.399368
	H5453	H	0.586184	0.216480	0.413093
	H5454	H	0.601219	0.282556	0.475653
	H5455	H	0.586302	0.282857	0.461922
	H5456	H	0.562525	0.125437	0.420376
	H5457	H	0.562769	0.374658	0.454797
	H5458	H	0.500021	0.375168	0.482902
	H5459	H	0.624972	0.125154	0.392381
	H5460	H	0.538680	0.217045	0.413279
	H5461	H	0.523727	0.216880	0.399629
	H5462	H	0.523816	0.283552	0.475673
	H5463	H	0.538694	0.283066	0.461903
	H5464	H	0.523799	0.533089	0.399481
	H5465	H	0.538722	0.533052	0.413225
	H5466	H	0.538717	-0.033007	0.462036
	H5467	H	0.523798	-0.032650	0.475772
	H5468	H	0.586233	-0.033402	0.462072
	H5469	H	0.601171	-0.033892	0.475782
	H5470	H	0.586278	0.533137	0.413394
	H5471	H	0.601221	0.533196	0.399670
	Al5472	Al	0.562511	-0.500058	0.562504
	Al5473	Al	0.562533	-0.249931	0.562529
	Al5474	Al	0.499951	-0.249944	0.500070
	Al5475	Al	0.499944	-0.500213	0.500090
	O5476	O	0.572623	-0.459168	0.574379
	O5477	O	0.562594	-0.375160	0.554310
	O5478	O	0.562518	-0.124837	0.570711
	O5479	O	0.614993	-0.459022	0.612987
	O5480	O	0.552423	-0.458960	0.574433
	O5481	O	0.510143	-0.459381	0.613023
	O5482	O	0.552372	-0.290750	0.574332
	O5483	O	0.552431	-0.209305	0.550568
	O5484	O	0.510047	-0.209489	0.512036
	O5485	O	0.572604	-0.290871	0.574534
	O5486	O	0.572666	-0.208865	0.550612
	O5487	O	0.614928	-0.209621	0.512015
	O5488	O	0.510096	-0.291070	0.612968
	O5489	O	0.552410	-0.041027	0.550564
	O5490	O	0.510075	-0.041129	0.511999
	O5491	O	0.614891	-0.041204	0.511868
	O5492	O	0.572597	-0.040583	0.550597
	O5493	O	0.614918	-0.290985	0.613024
	O5494	O	0.500023	-0.124686	0.616741
	O5495	O	0.625009	-0.375150	0.508302
	C5496	C	0.597945	-0.286537	0.597604
	C5497	C	0.602298	-0.375659	0.601480
	C5498	C	0.597965	-0.464865	0.597565
	C5499	C	0.589537	-0.464706	0.589900
	C5500	C	0.585218	-0.375513	0.586001
	C5501	C	0.589532	-0.286475	0.589956
	C5502	C	0.576188	-0.375303	0.577619
	C5503	C	0.611374	-0.375204	0.609827
	C5504	C	0.548826	-0.374825	0.577553
	C5505	C	0.539790	-0.375085	0.585935
	C5506	C	0.535534	-0.285928	0.589950
	C5507	C	0.527105	-0.285990	0.597629
	C5508	C	0.522753	-0.375258	0.601482
	C5509	C	0.527051	-0.464439	0.597502
	C5510	C	0.535479	-0.464266	0.589833
	C5511	C	0.513675	-0.375087	0.609789
	C5512	C	0.548865	-0.125296	0.547378
	C5513	C	0.539792	-0.125421	0.539050
	C5514	C	0.535476	-0.036145	0.535101
	C5515	C	0.527034	-0.036078	0.527444
	C5516	C	0.522717	-0.125234	0.523557
	C5517	C	0.527039	-0.214480	0.527493
	C5518	C	0.535484	-0.214665	0.535146
	C5519	C	0.513627	-0.125350	0.515230
	C5520	C	0.576198	-0.124742	0.547420
	C5521	C	0.585221	-0.124783	0.538983
	C5522	C	0.589612	-0.214082	0.535266
	C5523	C	0.598018	-0.213886	0.527544
	C5524	C	0.602261	-0.124728	0.523473
	C5525	C	0.597870	-0.035517	0.527208
	C5526	C	0.589452	-0.035513	0.534912
	C5527	C	0.611321	-0.125265	0.515138
	H5528	H	0.601335	-0.282796	0.524651
	H5529	H	0.586479	-0.283318	0.538503
	H5530	H	0.601193	-0.217433	0.600659
	H5531	H	0.586265	-0.217159	0.586945
	H5532	H	0.562577	-0.374840	0.545285
	H5533	H	0.562535	-0.125392	0.579733
	H5534	H	0.500043	-0.124754	0.607722
	H5535	H	0.624911	-0.374719	0.517285
	H5536	H	0.538720	-0.283686	0.538151
	H5537	H	0.523772	-0.283840	0.524512
	H5538	H	0.523865	-0.216971	0.600675
	H5539	H	0.538811	-0.216866	0.587017
	H5540	H	0.523764	0.033036	0.524473
	H5541	H	0.538706	0.033218	0.538092
	H5542	H	0.538706	-0.533453	0.586764
	H5543	H	0.523764	-0.533527	0.600444
	H5544	H	0.586279	-0.533666	0.586843
	H5545	H	0.601238	-0.533693	0.600610
	H5546	H	0.586142	0.033583	0.537830
	H5547	H	0.601036	0.033656	0.524067
	Al5548	Al	0.562463	0.000112	0.562517
	Al5549	Al	0.562469	0.250156	0.562494
	Al5550	Al	0.499975	0.250107	0.500072
	Al5551	Al	0.499948	0.000076	0.500067
	O5552	O	0.572601	0.041164	0.574461
	O5553	O	0.562493	0.124972	0.554280
	O5554	O	0.562479	0.375111	0.570725
	O5555	O	0.614953	0.040850	0.612894
	O5556	O	0.552372	0.041018	0.574452
	O5557	O	0.510062	0.041155	0.613043
	O5558	O	0.552369	0.209273	0.574409
	O5559	O	0.552404	0.291338	0.550585
	O5560	O	0.510050	0.291107	0.512021
	O5561	O	0.572572	0.209380	0.574382
	O5562	O	0.572587	0.290814	0.550648
	O5563	O	0.614934	0.290669	0.511997
	O5564	O	0.510058	0.209273	0.613015
	O5565	O	0.552383	0.459399	0.550552
	O5566	O	0.510077	0.459344	0.511978
	O5567	O	0.614822	0.458759	0.511868
	O5568	O	0.572575	0.458867	0.550516
	O5569	O	0.614927	0.209186	0.613035
	O5570	O	0.499975	0.374965	0.616800
	O5571	O	0.625053	0.124814	0.508224
	C5572	C	0.597970	0.214677	0.597584
	C5573	C	0.602307	0.125488	0.601417
	C5574	C	0.598006	0.036424	0.597454
	C5575	C	0.589563	0.036604	0.589797
	C5576	C	0.585233	0.125606	0.585937
	C5577	C	0.589523	0.214700	0.589909
	C5578	C	0.576184	0.125484	0.577583
	C5579	C	0.611373	0.125106	0.609785
	C5580	C	0.548823	0.125173	0.577648
	C5581	C	0.539759	0.124791	0.586000
	C5582	C	0.535433	0.213842	0.589915
	C5583	C	0.526989	0.214124	0.597569
	C5584	C	0.522688	0.125206	0.601516
	C5585	C	0.526996	0.036053	0.597566
	C5586	C	0.535434	0.035789	0.589902
	C5587	C	0.513630	0.125099	0.609863
	C5588	C	0.548821	0.375178	0.547355
	C5589	C	0.539752	0.375115	0.539055
	C5590	C	0.535441	0.464070	0.535136
	C5591	C	0.527008	0.463975	0.527492
	C5592	C	0.522686	0.375123	0.523553
	C5593	C	0.526984	0.286165	0.527537
	C5594	C	0.535419	0.286154	0.535181
	C5595	C	0.513625	0.375062	0.515205
	C5596	C	0.576172	0.374784	0.547416
	C5597	C	0.585214	0.374525	0.539051
	C5598	C	0.589589	0.285396	0.535213
	C5599	C	0.598008	0.285189	0.527519
	C5600	C	0.602301	0.374414	0.523518
	C5601	C	0.597902	0.463495	0.527274
	C5602	C	0.589488	0.463676	0.534980
	C5603	C	0.611314	0.374646	0.515129
	H5604	H	0.601272	0.216213	0.524560
	H5605	H	0.586396	0.216542	0.538325
	H5606	H	0.601225	0.283756	0.600623
	H5607	H	0.586270	0.284067	0.587002
	H5608	H	0.562568	0.124887	0.545326
	H5609	H	0.562439	0.375013	0.579728
	H5610	H	0.500029	0.374715	0.607833
	H5611	H	0.625061	0.125149	0.517182
	H5612	H	0.538694	0.217369	0.538157
	H5613	H	0.523732	0.217393	0.524529
	H5614	H	0.523721	0.283035	0.600525
	H5615	H	0.538687	0.282861	0.586950
	H5616	H	0.523762	0.532976	0.524496
	H5617	H	0.538734	0.532947	0.538129
	H5618	H	0.538687	-0.032961	0.586839
	H5619	H	0.523736	-0.033130	0.600528
	H5620	H	0.586321	-0.032472	0.586794
	H5621	H	0.601218	-0.032803	0.600418
	H5622	H	0.586183	0.532788	0.537867
	H5623	H	0.601106	0.532431	0.524133
	Al5624	Al	0.562503	-0.500029	0.687450
	Al5625	Al	0.562470	-0.250119	0.687478
	Al5626	Al	0.500010	-0.249967	0.624913
	Al5627	Al	0.500022	-0.500099	0.624959
	O5628	O	0.572573	-0.458967	0.699389
	O5629	O	0.562511	-0.375104	0.679280
	O5630	O	0.562473	-0.124655	0.695666
	O5631	O	0.614931	-0.458772	0.737959
	O5632	O	0.552361	-0.459668	0.699425
	O5633	O	0.510068	-0.459361	0.738007
	O5634	O	0.552422	-0.291476	0.699414
	O5635	O	0.552367	-0.208966	0.675563
	O5636	O	0.510113	-0.209028	0.636879
	O5637	O	0.572549	-0.290664	0.699415
	O5638	O	0.572642	-0.209284	0.675596
	O5639	O	0.614945	-0.209031	0.636920
	O5640	O	0.510057	-0.291110	0.738039
	O5641	O	0.552451	-0.040664	0.675466
	O5642	O	0.510090	-0.040788	0.636920
	O5643	O	0.614887	-0.040794	0.636876
	O5644	O	0.572617	-0.040931	0.675483
	O5645	O	0.614866	-0.290856	0.737976
	O5646	O	0.499965	-0.125053	0.741665
	O5647	O	0.625076	-0.375049	0.633206
	C5648	C	0.597946	-0.285948	0.722501
	C5649	C	0.602261	-0.375111	0.726428
	C5650	C	0.597952	-0.464206	0.722481
	C5651	C	0.589539	-0.464362	0.714818
	C5652	C	0.585190	-0.375062	0.710955
	C5653	C	0.589522	-0.285994	0.714861
	C5654	C	0.576137	-0.374800	0.702604
	C5655	C	0.611334	-0.374845	0.734773
	C5656	C	0.548827	-0.375551	0.702611
	C5657	C	0.539767	-0.375358	0.710979
	C5658	C	0.535485	-0.286235	0.714940
	C5659	C	0.527058	-0.286181	0.722582
	C5660	C	0.522707	-0.375037	0.726480
	C5661	C	0.527008	-0.464153	0.722525
	C5662	C	0.535430	-0.464362	0.714868
	C5663	C	0.513634	-0.375372	0.734818
	C5664	C	0.548833	-0.124845	0.672337
	C5665	C	0.539817	-0.124525	0.663930
	C5666	C	0.535482	-0.035253	0.660060
	C5667	C	0.527050	-0.035177	0.652416
	C5668	C	0.522740	-0.124506	0.648453
	C5669	C	0.527104	-0.213692	0.652290
	C5670	C	0.535527	-0.213835	0.659938
	C5671	C	0.513689	-0.124915	0.640117
	C5672	C	0.576217	-0.125170	0.672400
	C5673	C	0.585246	-0.125443	0.663984
	C5674	C	0.589605	-0.214693	0.660158
	C5675	C	0.598016	-0.214830	0.652461
	C5676	C	0.602301	-0.125636	0.648474
	C5677	C	0.597919	-0.036539	0.652268
	C5678	C	0.589522	-0.036423	0.659964
	C5679	C	0.611342	-0.125035	0.640087
	H5680	H	0.601340	-0.283975	0.649506
	H5681	H	0.586378	-0.283723	0.663226
	H5682	H	0.601219	-0.216749	0.725500
	H5683	H	0.586245	-0.216989	0.711878
	H5684	H	0.562635	-0.374780	0.670228
	H5685	H	0.562344	-0.124040	0.704614
	H5686	H	0.500049	-0.125236	0.732733
	H5687	H	0.625150	-0.374298	0.642223
	H5688	H	0.538805	-0.283010	0.662951
	H5689	H	0.523854	-0.283012	0.649207
	H5690	H	0.523803	-0.217278	0.725575
	H5691	H	0.538758	-0.217489	0.711926
	H5692	H	0.523769	0.034068	0.649422
	H5693	H	0.538734	0.033624	0.663128
	H5694	H	0.538662	-0.533648	0.711807
	H5695	H	0.523701	-0.533213	0.725465
	H5696	H	0.586309	-0.533446	0.711784
	H5697	H	0.601276	-0.533076	0.725418
	H5698	H	0.586219	0.032839	0.662888
	H5699	H	0.601144	0.032405	0.649191
	Al5700	Al	0.562571	-0.000025	0.687404
	Al5701	Al	0.562563	0.250124	0.687449
	Al5702	Al	0.499977	0.250050	0.624972
	Al5703	Al	0.499984	0.000116	0.624988
	O5704	O	0.572652	0.040869	0.699332
	O5705	O	0.562518	0.125159	0.679217
	O5706	O	0.562565	0.375143	0.695633
	O5707	O	0.614899	0.041008	0.738064
	O5708	O	0.552448	0.040859	0.699338
	O5709	O	0.510097	0.041322	0.737943
	O5710	O	0.552421	0.209074	0.699252
	O5711	O	0.552456	0.291029	0.675449
	O5712	O	0.510068	0.290988	0.636916
	O5713	O	0.572597	0.208984	0.699460
	O5714	O	0.572686	0.291035	0.675569
	O5715	O	0.614977	0.291261	0.636962
	O5716	O	0.510114	0.209397	0.738036
	O5717	O	0.552377	0.459146	0.675540
	O5718	O	0.510077	0.459271	0.636918
	O5719	O	0.614935	0.459455	0.636846
	O5720	O	0.572597	0.459565	0.675436
	O5721	O	0.614915	0.208931	0.738043
	O5722	O	0.499985	0.375001	0.741727
	O5723	O	0.624991	0.124738	0.633176
	C5724	C	0.597922	0.214127	0.722614
	C5725	C	0.602296	0.125150	0.726438
	C5726	C	0.598002	0.036207	0.722513
	C5727	C	0.589573	0.036164	0.714853
	C5728	C	0.585257	0.125034	0.710927
	C5729	C	0.589483	0.214170	0.714963
	C5730	C	0.576194	0.124922	0.702584
	C5731	C	0.611344	0.125000	0.734812
	C5732	C	0.548840	0.125055	0.702478
	C5733	C	0.539805	0.125197	0.710844
	C5734	C	0.535469	0.214181	0.714763
	C5735	C	0.527052	0.214187	0.722489
	C5736	C	0.522737	0.125177	0.726401
	C5737	C	0.527103	0.036304	0.722533
	C5738	C	0.535521	0.036346	0.714820
	C5739	C	0.513668	0.125259	0.734766
	C5740	C	0.548857	0.374949	0.672308
	C5741	C	0.539788	0.374666	0.663954
	C5742	C	0.535459	0.463848	0.660045
	C5743	C	0.527033	0.463901	0.652370
	C5744	C	0.522692	0.374884	0.648481
	C5745	C	0.527039	0.285657	0.652350
	C5746	C	0.535470	0.285508	0.660037
	C5747	C	0.513662	0.374948	0.640103
	C5748	C	0.576216	0.375307	0.672352
	C5749	C	0.585250	0.375464	0.663959
	C5750	C	0.589619	0.286074	0.660135
	C5751	C	0.598046	0.285939	0.652464
	C5752	C	0.602327	0.375098	0.648455
	C5753	C	0.597930	0.464345	0.652228
	C5754	C	0.589499	0.464787	0.659900
	C5755	C	0.611381	0.375366	0.640089
	H5756	H	0.601340	0.216587	0.649537
	H5757	H	0.586403	0.217118	0.663259
	H5758	H	0.601124	0.282995	0.725717
	H5759	H	0.586177	0.283307	0.712090
	H5760	H	0.562398	0.125594	0.670226
	H5761	H	0.562466	0.376179	0.704645
	H5762	H	0.500099	0.374841	0.732713
	H5763	H	0.625225	0.125255	0.642173
	H5764	H	0.538744	0.216318	0.663040
	H5765	H	0.523812	0.216547	0.649281
	H5766	H	0.523770	0.283299	0.725458
	H5767	H	0.538691	0.283510	0.711719
	H5768	H	0.523813	0.533115	0.649314
	H5769	H	0.538744	0.533150	0.663028
	H5770	H	0.538785	-0.032725	0.711830
	H5771	H	0.523886	-0.032541	0.725553
	H5772	H	0.586324	-0.033085	0.711819
	H5773	H	0.601272	-0.033266	0.725503
	H5774	H	0.586222	0.534232	0.662818
	H5775	H	0.601150	0.533412	0.649087
	Al5776	Al	0.562541	-0.500231	0.812505
	Al5777	Al	0.562514	-0.250135	0.812558
	Al5778	Al	0.499956	-0.249965	0.749899
	Al5779	Al	0.499961	-0.499868	0.749947
	O5780	O	0.572664	-0.458971	0.824335
	O5781	O	0.562490	-0.374905	0.804312
	O5782	O	0.562469	-0.124985	0.820728
	O5783	O	0.614881	-0.459321	0.863090
	O5784	O	0.552422	-0.459422	0.824405
	O5785	O	0.510119	-0.459543	0.863118
	O5786	O	0.552370	-0.291143	0.824433
	O5787	O	0.552379	-0.209634	0.800627
	O5788	O	0.510095	-0.209289	0.761789
	O5789	O	0.572612	-0.290553	0.824441
	O5790	O	0.572616	-0.209195	0.800604
	O5791	O	0.614843	-0.209052	0.761919
	O5792	O	0.510071	-0.291274	0.863039
	O5793	O	0.552340	-0.041368	0.800627
	O5794	O	0.510118	-0.041048	0.761786
	O5795	O	0.614846	-0.040829	0.761851
	O5796	O	0.572556	-0.041030	0.800557
	O5797	O	0.614891	-0.290868	0.863136
	O5798	O	0.500032	-0.125018	0.866727
	O5799	O	0.624996	-0.375325	0.758165
	C5800	C	0.597971	-0.285350	0.847629
	C5801	C	0.602304	-0.374663	0.851491
	C5802	C	0.597954	-0.463936	0.847605
	C5803	C	0.589559	-0.463944	0.839895
	C5804	C	0.585257	-0.374824	0.835954
	C5805	C	0.589550	-0.285554	0.839941
	C5806	C	0.576196	-0.374682	0.827592
	C5807	C	0.611326	-0.375094	0.859934
	C5808	C	0.548800	-0.375339	0.827556
	C5809	C	0.539755	-0.375538	0.835938
	C5810	C	0.535430	-0.286408	0.839847
	C5811	C	0.527014	-0.286214	0.847546
	C5812	C	0.522697	-0.375345	0.851451
	C5813	C	0.527023	-0.464469	0.847542
	C5814	C	0.535444	-0.464606	0.839830
	C5815	C	0.513654	-0.375489	0.859856
	C5816	C	0.548790	-0.125594	0.797447
	C5817	C	0.539763	-0.125454	0.789016
	C5818	C	0.535411	-0.036208	0.785174
	C5819	C	0.527002	-0.036198	0.777433
	C5820	C	0.522712	-0.125380	0.773427
	C5821	C	0.527108	-0.214698	0.777212
	C5822	C	0.535513	-0.214587	0.784946
	C5823	C	0.513701	-0.125199	0.764982
	C5824	C	0.576176	-0.124964	0.797380
	C5825	C	0.585221	-0.124697	0.789081
	C5826	C	0.589538	-0.213597	0.785134
	C5827	C	0.597955	-0.213835	0.777444
	C5828	C	0.602263	-0.124751	0.773500
	C5829	C	0.597922	-0.035656	0.777389
	C5830	C	0.589506	-0.035539	0.785098
	C5831	C	0.611284	-0.124806	0.765099
	H5832	H	0.601188	-0.282905	0.774410
	H5833	H	0.586278	-0.282510	0.788128
	H5834	H	0.601187	-0.215904	0.850702
	H5835	H	0.586219	-0.216438	0.837040
	H5836	H	0.562571	-0.374679	0.795363
	H5837	H	0.562385	-0.124219	0.829704
	H5838	H	0.499849	-0.124884	0.857765
	H5839	H	0.624989	-0.374940	0.767111
	H5840	H	0.538810	-0.283882	0.787866
	H5841	H	0.523933	-0.283734	0.774026
	H5842	H	0.523777	-0.216687	0.850532
	H5843	H	0.538658	-0.217202	0.836774
	H5844	H	0.523761	0.033055	0.774454
	H5845	H	0.538618	0.032825	0.788295
	H5846	H	0.538660	-0.533886	0.836777
	H5847	H	0.523784	-0.533549	0.850549
	H5848	H	0.586246	-0.533118	0.837037
	H5849	H	0.601207	-0.532781	0.850705
	H5850	H	0.586242	0.033672	0.788105
	H5851	H	0.601155	0.033278	0.774293
	Al5852	Al	0.562478	-0.000018	0.812479
	Al5853	Al	0.562508	0.250128	0.812451
	Al5854	Al	0.500000	0.250024	0.749987
	Al5855	Al	0.499998	0.000044	0.749896
	O5856	O	0.572630	0.040969	0.824319
	O5857	O	0.562489	0.124926	0.804255
	O5858	O	0.562544	0.374749	0.820703
	O5859	O	0.614838	0.041160	0.863135
	O5860	O	0.552376	0.041406	0.824371
	O5861	O	0.510119	0.041786	0.863089
	O5862	O	0.552377	0.209622	0.824350
	O5863	O	0.552433	0.291002	0.800474
	O5864	O	0.510145	0.291248	0.761889
	O5865	O	0.572609	0.209059	0.824384
	O5866	O	0.572676	0.290669	0.800616
	O5867	O	0.614891	0.290953	0.761873
	O5868	O	0.510126	0.209942	0.863137
	O5869	O	0.552385	0.459034	0.800622
	O5870	O	0.510122	0.459306	0.761865
	O5871	O	0.614881	0.459244	0.761855
	O5872	O	0.572635	0.459020	0.800552
	O5873	O	0.614835	0.209622	0.863149
	O5874	O	0.499956	0.374935	0.866768
	O5875	O	0.624984	0.125097	0.758274
	C5876	C	0.597899	0.214176	0.847674
	C5877	C	0.602237	0.125120	0.851559
	C5878	C	0.597993	0.035898	0.847488
	C5879	C	0.589598	0.035810	0.839768
	C5880	C	0.585223	0.124910	0.835933
	C5881	C	0.589502	0.214033	0.839957
	C5882	C	0.576191	0.124903	0.827540
	C5883	C	0.611287	0.125567	0.859933
	C5884	C	0.548789	0.125567	0.827545
	C5885	C	0.539739	0.125294	0.835932
	C5886	C	0.535394	0.214428	0.839766
	C5887	C	0.526996	0.214651	0.847503
	C5888	C	0.522710	0.125747	0.851513
	C5889	C	0.527026	0.036475	0.847617
	C5890	C	0.535429	0.036280	0.839904
	C5891	C	0.513690	0.125724	0.859913
	C5892	C	0.548837	0.375126	0.797326
	C5893	C	0.539824	0.375405	0.788930
	C5894	C	0.535435	0.464638	0.785165
	C5895	C	0.527032	0.464678	0.777444
	C5896	C	0.522751	0.375583	0.773438
	C5897	C	0.527088	0.286640	0.777305
	C5898	C	0.535489	0.286542	0.785013
	C5899	C	0.513727	0.375480	0.765018
	C5900	C	0.576199	0.374960	0.797357
	C5901	C	0.585228	0.375047	0.788957
	C5902	C	0.589585	0.285878	0.785119
	C5903	C	0.597998	0.286012	0.777400
	C5904	C	0.602226	0.375216	0.773363
	C5905	C	0.597914	0.464401	0.777314
	C5906	C	0.589509	0.464273	0.785043
	C5907	C	0.611301	0.375193	0.765007
	H5908	H	0.601297	0.216986	0.774437
	H5909	H	0.586403	0.216579	0.788201
	H5910	H	0.601146	0.283017	0.850703
	H5911	H	0.586257	0.283165	0.836935
	H5912	H	0.562417	0.124716	0.795243
	H5913	H	0.562570	0.375213	0.829662
	H5914	H	0.499982	0.374817	0.857818
	H5915	H	0.625002	0.125800	0.767257
	H5916	H	0.538753	0.217489	0.787973
	H5917	H	0.523861	0.217756	0.774251
	H5918	H	0.523740	0.283700	0.850479
	H5919	H	0.538613	0.283666	0.836660
	H5920	H	0.523738	0.533470	0.774493
	H5921	H	0.538632	0.533770	0.788252
	H5922	H	0.538677	-0.032830	0.836914
	H5923	H	0.523803	-0.032515	0.850658
	H5924	H	0.586403	-0.033242	0.836580
	H5925	H	0.601323	-0.032995	0.850371
	H5926	H	0.586249	0.533438	0.788080
	H5927	H	0.601115	0.533620	0.774306
	Al5928	Al	0.562473	-0.500011	0.937498
	Al5929	Al	0.562458	-0.249907	0.937530
	Al5930	Al	0.500024	-0.249827	0.874946
	Al5931	Al	0.499977	-0.499877	0.874987
	O5932	O	0.572567	-0.459253	0.949442
	O5933	O	0.562442	-0.375353	0.929305
	O5934	O	0.562429	-0.125085	0.945741
	O5935	O	0.614880	-0.459348	0.988149
	O5936	O	0.552367	-0.458930	0.949434
	O5937	O	0.510113	-0.459051	0.988154
	O5938	O	0.552366	-0.290847	0.949461
	O5939	O	0.552349	-0.209146	0.925624
	O5940	O	0.510116	-0.209369	0.886888
	O5941	O	0.572585	-0.291251	0.949408
	O5942	O	0.572555	-0.209289	0.925578
	O5943	O	0.614851	-0.209459	0.886998
	O5944	O	0.510071	-0.290877	0.988026
	O5945	O	0.552286	-0.041037	0.925725
	O5946	O	0.510151	-0.041025	0.886912
	O5947	O	0.614817	-0.041468	0.886936
	O5948	O	0.572509	-0.040995	0.925544
	O5949	O	0.614885	-0.291257	0.988057
	O5950	O	0.500000	-0.124914	0.991848
	O5951	O	0.624961	-0.375217	0.883285
	C5952	C	0.597996	-0.286571	0.972510
	C5953	C	0.602269	-0.375385	0.976527
	C5954	C	0.597910	-0.464237	0.972685
	C5955	C	0.589499	-0.464051	0.965001
	C5956	C	0.585226	-0.375168	0.960972
	C5957	C	0.589584	-0.286391	0.964827
	C5958	C	0.576164	-0.375225	0.952612
	C5959	C	0.611303	-0.375498	0.984923
	C5960	C	0.548810	-0.374901	0.952634
	C5961	C	0.539740	-0.374854	0.960962
	C5962	C	0.535434	-0.285967	0.964900
	C5963	C	0.527002	-0.286253	0.972571
	C5964	C	0.522704	-0.375156	0.976502
	C5965	C	0.527067	-0.464008	0.972650
	C5966	C	0.535494	-0.463812	0.964964
	C5967	C	0.513657	-0.375086	0.984885
	C5968	C	0.548762	-0.125137	0.922497
	C5969	C	0.539756	-0.125376	0.914046
	C5970	C	0.535445	-0.036149	0.910117
	C5971	C	0.527040	-0.036141	0.902378
	C5972	C	0.522743	-0.125508	0.898463
	C5973	C	0.527059	-0.214702	0.902380
	C5974	C	0.535467	-0.214726	0.910126
	C5975	C	0.513693	-0.125189	0.890110
	C5976	C	0.576134	-0.124973	0.922425
	C5977	C	0.585176	-0.124846	0.914097
	C5978	C	0.589505	-0.214346	0.910219
	C5979	C	0.597906	-0.214451	0.902513
	C5980	C	0.602239	-0.125094	0.898576
	C5981	C	0.597911	-0.035797	0.902458
	C5982	C	0.589508	-0.035669	0.910151
	C5983	C	0.611259	-0.125370	0.890153
	H5984	H	0.601173	-0.283419	0.899543
	H5985	H	0.586258	-0.283529	0.913312
	H5986	H	0.601278	-0.217474	0.975478
	H5987	H	0.586340	-0.217610	0.961759
	H5988	H	0.562355	-0.375258	0.920338
	H5989	H	0.562394	-0.125575	0.954695
	H5990	H	0.500130	-0.124775	0.982875
	H5991	H	0.624906	-0.375271	0.892278
	H5992	H	0.538692	-0.283989	0.913217
	H5993	H	0.523803	-0.283808	0.899370
	H5994	H	0.523753	-0.217138	0.975580
	H5995	H	0.538701	-0.216801	0.961981
	H5996	H	0.523820	0.033068	0.899373
	H5997	H	0.538684	0.033011	0.913147
	H5998	H	0.538796	-0.532855	0.962048
	H5999	H	0.523889	-0.532982	0.975708
	H6000	H	0.586202	-0.533034	0.962075
	H6001	H	0.601101	-0.532859	0.975787
	H6002	H	0.586274	0.033659	0.913110
	H6003	H	0.601136	0.033380	0.899362
	Al6004	Al	0.562446	0.000124	0.937534
	Al6005	Al	0.562467	0.250094	0.937446
	Al6006	Al	0.500018	0.250004	0.874995
	Al6007	Al	0.500014	-0.000058	0.874970
	O6008	O	0.572573	0.041035	0.949416
	O6009	O	0.562461	0.125116	0.929226
	O6010	O	0.562479	0.375060	0.945698
	O6011	O	0.614894	0.040900	0.988041
	O6012	O	0.552386	0.040911	0.949467
	O6013	O	0.510103	0.040870	0.988251
	O6014	O	0.552376	0.209067	0.949410
	O6015	O	0.552365	0.290887	0.925518
	O6016	O	0.510098	0.291024	0.886887
	O6017	O	0.572618	0.209156	0.949358
	O6018	O	0.572547	0.291026	0.925567
	O6019	O	0.614902	0.290628	0.887006
	O6020	O	0.510124	0.209017	0.988150
	O6021	O	0.552331	0.459144	0.925604
	O6022	O	0.510093	0.459168	0.886886
	O6023	O	0.614820	0.458918	0.886928
	O6024	O	0.572604	0.459295	0.925611
	O6025	O	0.614894	0.209183	0.988009
	O6026	O	0.499993	0.375043	0.991854
	O6027	O	0.624967	0.124793	0.883229
	C6028	C	0.597939	0.214360	0.972560
	C6029	C	0.602257	0.125212	0.976485
	C6030	C	0.597908	0.036071	0.972655
	C6031	C	0.589487	0.036019	0.964971
	C6032	C	0.585200	0.125036	0.960978
	C6033	C	0.589514	0.214211	0.964881
	C6034	C	0.576152	0.124959	0.952570
	C6035	C	0.611329	0.125126	0.984860
	C6036	C	0.548794	0.125160	0.952624
	C6037	C	0.539725	0.124959	0.960971
	C6038	C	0.535368	0.213923	0.964866
	C6039	C	0.526975	0.213852	0.972561
	C6040	C	0.522705	0.124860	0.976559
	C6041	C	0.527047	0.035959	0.972622
	C6042	C	0.535445	0.035952	0.964932
	C6043	C	0.513654	0.124790	0.984963
	C6044	C	0.548798	0.374982	0.922328
	C6045	C	0.539726	0.375141	0.914028
	C6046	C	0.535424	0.464333	0.910106
	C6047	C	0.527000	0.464132	0.902421
	C6048	C	0.522680	0.374940	0.898490
	C6049	C	0.527017	0.285740	0.902366
	C6050	C	0.535439	0.285981	0.910051
	C6051	C	0.513661	0.374978	0.890052
	C6052	C	0.576166	0.375040	0.922450
	C6053	C	0.585221	0.375173	0.914065
	C6054	C	0.589544	0.285827	0.910183
	C6055	C	0.597962	0.285748	0.902499
	C6056	C	0.602263	0.374728	0.898557
	C6057	C	0.597911	0.464003	0.902359
	C6058	C	0.589495	0.464256	0.910053
	C6059	C	0.611295	0.374460	0.890142
	H6060	H	0.601202	0.216359	0.899486
	H6061	H	0.586352	0.216730	0.913282
	H6062	H	0.601223	0.283306	0.975525
	H6063	H	0.586271	0.283139	0.961864
	H6064	H	0.562585	0.124515	0.920277
	H6065	H	0.562505	0.374798	0.954665
	H6066	H	0.499912	0.375148	0.982874
	H6067	H	0.625115	0.124884	0.892202
	H6068	H	0.538741	0.216919	0.912973
	H6069	H	0.523826	0.216726	0.899244
	H6070	H	0.523690	0.282728	0.975529
	H6071	H	0.538614	0.282962	0.961832
	H6072	H	0.523786	0.532956	0.899305
	H6073	H	0.538734	0.533409	0.913057
	H6074	H	0.538727	-0.032863	0.961935
	H6075	H	0.523776	-0.032763	0.975637
	H6076	H	0.586228	-0.033182	0.961993
	H6077	H	0.601150	-0.032921	0.975658
	H6078	H	0.586230	0.533280	0.913014
	H6079	H	0.601109	0.532983	0.899250
	Al6080	Al	0.687504	-0.500286	0.062548
	Al6081	Al	0.687473	-0.250244	0.062495
	Al6082	Al	0.625004	-0.250267	0.000019
	Al6083	Al	0.625000	-0.500313	0.000023
	O6084	O	0.697597	-0.459112	0.074467
	O6085	O	0.687488	-0.375251	0.054323
	O6086	O	0.687457	-0.125335	0.070728
	O6087	O	0.739863	-0.458775	0.113100
	O6088	O	0.677373	-0.459328	0.074493
	O6089	O	0.635123	-0.459395	0.113068
	O6090	O	0.677399	-0.291388	0.074406
	O6091	O	0.677422	-0.209532	0.050512
	O6092	O	0.635053	-0.209182	0.011961
	O6093	O	0.697573	-0.290990	0.074423
	O6094	O	0.697562	-0.209563	0.050567
	O6095	O	0.739857	-0.209035	0.011888
	O6096	O	0.635039	-0.291317	0.113023
	O6097	O	0.677413	-0.041432	0.050559
	O6098	O	0.635040	-0.041120	0.011993
	O6099	O	0.739853	-0.040904	0.011849
	O6100	O	0.697604	-0.041227	0.050607
	O6101	O	0.739874	-0.290694	0.113132
	O6102	O	0.625006	-0.125068	0.116810
	O6103	O	0.749913	-0.375093	0.008217
	C6104	C	0.722881	-0.285453	0.097700
	C6105	C	0.727273	-0.374437	0.101509
	C6106	C	0.722964	-0.463469	0.097591
	C6107	C	0.714551	-0.463572	0.089912
	C6108	C	0.710226	-0.374534	0.085971
	C6109	C	0.714467	-0.285594	0.090013
	C6110	C	0.701176	-0.375001	0.077619
	C6111	C	0.736322	-0.374704	0.109878
	C6112	C	0.673797	-0.375148	0.077615
	C6113	C	0.664747	-0.374850	0.085938
	C6114	C	0.660412	-0.285917	0.089825
	C6115	C	0.651997	-0.285911	0.097523
	C6116	C	0.647696	-0.374955	0.101470
	C6117	C	0.652032	-0.463914	0.097568
	C6118	C	0.660439	-0.463871	0.089879
	C6119	C	0.638659	-0.375296	0.109847
	C6120	C	0.673861	-0.125560	0.047354
	C6121	C	0.664797	-0.125242	0.038942
	C6122	C	0.660461	-0.036235	0.035091
	C6123	C	0.652017	-0.036203	0.027447
	C6124	C	0.647693	-0.125321	0.023502
	C6125	C	0.652046	-0.214424	0.027342
	C6126	C	0.660487	-0.214393	0.034995
	C6127	C	0.638652	-0.125104	0.015128
	C6128	C	0.701150	-0.125236	0.047392
	C6129	C	0.710181	-0.125568	0.039024
	C6130	C	0.714459	-0.214673	0.035026
	C6131	C	0.722872	-0.214499	0.027332
	C6132	C	0.727248	-0.125125	0.023483
	C6133	C	0.722924	-0.036167	0.027430
	C6134	C	0.714508	-0.036232	0.035113
	C6135	C	0.736296	-0.125040	0.015092
	H6136	H	0.726102	-0.283353	0.024276
	H6137	H	0.711152	-0.283689	0.037983
	H6138	H	0.726083	-0.216549	0.100800
	H6139	H	0.711162	-0.216336	0.087094
	H6140	H	0.687482	-0.374872	0.045343
	H6141	H	0.687485	-0.125202	0.079746
	H6142	H	0.624981	-0.125300	0.107754
	H6143	H	0.749920	-0.375409	0.017156
	H6144	H	0.663767	-0.283671	0.037941
	H6145	H	0.648821	-0.283651	0.024304
	H6146	H	0.648716	-0.217023	0.100506
	H6147	H	0.663660	-0.217069	0.086821
	H6148	H	0.648737	0.032804	0.024509
	H6149	H	0.663707	0.032809	0.038128
	H6150	H	0.663704	-0.532920	0.086879
	H6151	H	0.648784	-0.533504	0.100563
	H6152	H	0.711303	-0.532703	0.086894
	H6153	H	0.726215	-0.532747	0.100584
	H6154	H	0.711257	0.032608	0.038149
	H6155	H	0.726199	0.033058	0.024422
	Al6156	Al	0.687507	-0.000304	0.062560
	Al6157	Al	0.687465	0.250039	0.062527
	Al6158	Al	0.625006	0.249580	-0.000070
	Al6159	Al	0.624955	-0.000393	0.000040
	O6160	O	0.697602	0.040394	0.074465
	O6161	O	0.687525	0.124756	0.054319
	O6162	O	0.687480	0.374732	0.070726
	O6163	O	0.739872	0.040706	0.113098
	O6164	O	0.677399	0.041070	0.074427
	O6165	O	0.635134	0.040683	0.113088
	O6166	O	0.677385	0.209343	0.074441
	O6167	O	0.677400	0.290544	0.050573
	O6168	O	0.635131	0.290577	0.011915
	O6169	O	0.697571	0.208843	0.074457
	O6170	O	0.697603	0.290632	0.050634
	O6171	O	0.739844	0.290898	0.011874
	O6172	O	0.635024	0.209142	0.112955
	O6173	O	0.677411	0.458852	0.050583
	O6174	O	0.635124	0.458937	0.011916
	O6175	O	0.739829	0.458850	0.011944
	O6176	O	0.697584	0.458883	0.050620
	O6177	O	0.739888	0.208822	0.113081
	O6178	O	0.624951	0.375080	0.116794
	O6179	O	0.749943	0.124849	0.008188
	C6180	C	0.722941	0.213930	0.097617
	C6181	C	0.727255	0.124689	0.101562
	C6182	C	0.722955	0.035468	0.097589
	C6183	C	0.714533	0.035385	0.089910
	C6184	C	0.710181	0.124698	0.086052
	C6185	C	0.714512	0.213956	0.089950
	C6186	C	0.701115	0.124713	0.077707
	C6187	C	0.736297	0.124825	0.109913
	C6188	C	0.673820	0.125030	0.077608
	C6189	C	0.664758	0.125081	0.085963
	C6190	C	0.660389	0.214331	0.089792
	C6191	C	0.651967	0.214105	0.097455
	C6192	C	0.647683	0.124981	0.101458
	C6193	C	0.652041	0.035784	0.097630
	C6194	C	0.660458	0.035803	0.089959
	C6195	C	0.638648	0.124967	0.109841
	C6196	C	0.673847	0.374845	0.047396
	C6197	C	0.664819	0.374988	0.038976
	C6198	C	0.660488	0.464176	0.035097
	C6199	C	0.652067	0.464073	0.027430
	C6200	C	0.647771	0.374961	0.023428
	C6201	C	0.652106	0.285848	0.027325
	C6202	C	0.660513	0.285847	0.035013
	C6203	C	0.638708	0.374801	0.015070
	C6204	C	0.701156	0.374716	0.047426
	C6205	C	0.710193	0.374992	0.039008
	C6206	C	0.714472	0.286005	0.035028
	C6207	C	0.722877	0.285933	0.027309
	C6208	C	0.727208	0.374817	0.023463
	C6209	C	0.722949	0.463778	0.027476
	C6210	C	0.714530	0.463922	0.035180
	C6211	C	0.736255	0.374656	0.015098
	H6212	H	0.726111	0.216845	0.024272
	H6213	H	0.711217	0.217131	0.037995
	H6214	H	0.726197	0.283015	0.100588
	H6215	H	0.711213	0.282757	0.086973
	H6216	H	0.687426	0.125064	0.045335
	H6217	H	0.687429	0.374906	0.079696
	H6218	H	0.625022	0.375205	0.107736
	H6219	H	0.749928	0.124812	0.017157
	H6220	H	0.663748	0.216809	0.038093
	H6221	H	0.648872	0.216844	0.024237
	H6222	H	0.648658	0.283077	0.100433
	H6223	H	0.663616	0.282950	0.086687
	H6224	H	0.648805	0.532965	0.024416
	H6225	H	0.663689	0.533191	0.038200
	H6226	H	0.663742	-0.032935	0.086990
	H6227	H	0.648833	-0.033098	0.100744
	H6228	H	0.711293	-0.033718	0.086896
	H6229	H	0.726228	-0.033674	0.100593
	H6230	H	0.711335	0.532922	0.038262
	H6231	H	0.726218	0.532655	0.024543
	Al6232	Al	0.687443	-0.499971	0.187661
	Al6233	Al	0.687476	-0.249868	0.187546
	Al6234	Al	0.624978	-0.250211	0.125017
	Al6235	Al	0.624989	-0.500159	0.124990
	O6236	O	0.697565	-0.459508	0.199561
	O6237	O	0.687539	-0.375051	0.179423
	O6238	O	0.687562	-0.125286	0.195811
	O6239	O	0.739938	-0.459092	0.238099
	O6240	O	0.677342	-0.458660	0.199548
	O6241	O	0.635069	-0.458924	0.238092
	O6242	O	0.677331	-0.290530	0.199448
	O6243	O	0.677397	-0.209224	0.175670
	O6244	O	0.635101	-0.209175	0.136974
	O6245	O	0.697574	-0.291253	0.199551
	O6246	O	0.697538	-0.209339	0.175510
	O6247	O	0.739865	-0.209500	0.136992
	O6248	O	0.635125	-0.290701	0.238214
	O6249	O	0.677403	-0.041080	0.175717
	O6250	O	0.635060	-0.041021	0.137045
	O6251	O	0.739874	-0.041344	0.136996
	O6252	O	0.697590	-0.041089	0.175643
	O6253	O	0.739811	-0.291059	0.238214
	O6254	O	0.624972	-0.125110	0.241897
	O6255	O	0.749931	-0.374877	0.133253
	C6256	C	0.722937	-0.286402	0.222658
	C6257	C	0.727285	-0.375638	0.226511
	C6258	C	0.722952	-0.464695	0.222628
	C6259	C	0.714523	-0.464598	0.214941
	C6260	C	0.710213	-0.375286	0.211041
	C6261	C	0.714524	-0.286339	0.214978
	C6262	C	0.701156	-0.375421	0.202685
	C6263	C	0.736302	-0.375197	0.234967
	C6264	C	0.673777	-0.374531	0.202682
	C6265	C	0.664733	-0.375010	0.211059
	C6266	C	0.660434	-0.286292	0.215068
	C6267	C	0.652039	-0.286244	0.222761
	C6268	C	0.647686	-0.375062	0.226582
	C6269	C	0.651972	-0.464058	0.222545
	C6270	C	0.660380	-0.464128	0.214856
	C6271	C	0.638654	-0.374983	0.234954
	C6272	C	0.673824	-0.125038	0.172509
	C6273	C	0.664792	-0.124941	0.164108
	C6274	C	0.660478	-0.035934	0.160119
	C6275	C	0.652054	-0.036027	0.152461
	C6276	C	0.647700	-0.125139	0.148600
	C6277	C	0.652065	-0.214082	0.152484
	C6278	C	0.660487	-0.213991	0.160138
	C6279	C	0.638641	-0.124992	0.140211
	C6280	C	0.701140	-0.125128	0.172362
	C6281	C	0.710200	-0.125187	0.164054
	C6282	C	0.714532	-0.214304	0.160166
	C6283	C	0.722958	-0.214536	0.152499
	C6284	C	0.727256	-0.125429	0.148534
	C6285	C	0.722933	-0.036336	0.152452
	C6286	C	0.714506	-0.036166	0.160128
	C6287	C	0.736314	-0.125392	0.140177
	H6288	H	0.726255	-0.283482	0.149539
	H6289	H	0.711252	-0.283197	0.163123
	H6290	H	0.726162	-0.217518	0.225678
	H6291	H	0.711258	-0.217415	0.212028
	H6292	H	0.687560	-0.374870	0.170433
	H6293	H	0.687533	-0.124944	0.204783
	H6294	H	0.624978	-0.124961	0.232931
	H6295	H	0.749843	-0.375057	0.142271
	H6296	H	0.663757	-0.283250	0.163138
	H6297	H	0.648811	-0.283062	0.149421
	H6298	H	0.648781	-0.217524	0.225828
	H6299	H	0.663696	-0.217481	0.212106
	H6300	H	0.648808	0.032814	0.149406
	H6301	H	0.663765	0.033086	0.163123
	H6302	H	0.663618	-0.532974	0.211740
	H6303	H	0.648664	-0.532768	0.225428
	H6304	H	0.711258	-0.533408	0.211943
	H6305	H	0.726183	-0.533572	0.225672
	H6306	H	0.711244	0.032752	0.163096
	H6307	H	0.726169	0.032684	0.149435
	Al6308	Al	0.687469	0.000048	0.187639
	Al6309	Al	0.687470	0.250333	0.187607
	Al6310	Al	0.624987	0.249646	0.124994
	Al6311	Al	0.625025	-0.000138	0.125020
	O6312	O	0.697543	0.041099	0.199601
	O6313	O	0.687536	0.124955	0.179420
	O6314	O	0.687432	0.374920	0.195888
	O6315	O	0.739925	0.040979	0.238082
	O6316	O	0.677368	0.040250	0.199523
	O6317	O	0.635042	0.040709	0.238094
	O6318	O	0.677362	0.208570	0.199512
	O6319	O	0.677368	0.290941	0.175694
	O6320	O	0.635153	0.290733	0.136862
	O6321	O	0.697599	0.209298	0.199487
	O6322	O	0.697537	0.290776	0.175653
	O6323	O	0.739845	0.291124	0.136990
	O6324	O	0.635103	0.208935	0.238203
	O6325	O	0.677356	0.459386	0.175731
	O6326	O	0.635027	0.458950	0.137007
	O6327	O	0.739856	0.459257	0.136992
	O6328	O	0.697590	0.458821	0.175718
	O6329	O	0.739871	0.209180	0.238153
	O6330	O	0.624991	0.375072	0.241850
	O6331	O	0.749922	0.125015	0.133224
	C6332	C	0.722961	0.214042	0.222635
	C6333	C	0.727270	0.124758	0.226546
	C6334	C	0.722933	0.035676	0.222631
	C6335	C	0.714511	0.035975	0.214991
	C6336	C	0.710189	0.125224	0.211101
	C6337	C	0.714526	0.214333	0.214973
	C6338	C	0.701148	0.125132	0.202701
	C6339	C	0.736324	0.124947	0.234950
	C6340	C	0.673781	0.124561	0.202687
	C6341	C	0.664740	0.124398	0.211068
	C6342	C	0.660420	0.213507	0.214956
	C6343	C	0.651990	0.213561	0.222642
	C6344	C	0.647678	0.124469	0.226584
	C6345	C	0.651991	0.035306	0.222660
	C6346	C	0.660414	0.035376	0.214979
	C6347	C	0.638642	0.124864	0.234943
	C6348	C	0.673802	0.375270	0.172490
	C6349	C	0.664759	0.375258	0.164103
	C6350	C	0.660431	0.464420	0.160192
	C6351	C	0.652009	0.464149	0.152474
	C6352	C	0.647724	0.374844	0.148516
	C6353	C	0.652048	0.285675	0.152441
	C6354	C	0.660468	0.285961	0.160149
	C6355	C	0.638661	0.374919	0.140105
	C6356	C	0.701133	0.374883	0.172488
	C6357	C	0.710155	0.375032	0.164089
	C6358	C	0.714467	0.286100	0.160118
	C6359	C	0.722896	0.286094	0.152458
	C6360	C	0.727222	0.375211	0.148560
	C6361	C	0.722911	0.464211	0.152496
	C6362	C	0.714478	0.464102	0.160161
	C6363	C	0.736285	0.375162	0.140231
	H6364	H	0.726152	0.216795	0.149444
	H6365	H	0.711248	0.217028	0.163145
	H6366	H	0.726223	0.283039	0.225666
	H6367	H	0.711279	0.283270	0.211916
	H6368	H	0.687535	0.125503	0.170424
	H6369	H	0.687584	0.375193	0.204895
	H6370	H	0.624981	0.375360	0.232893
	H6371	H	0.749950	0.125040	0.142151
	H6372	H	0.663740	0.216655	0.163129
	H6373	H	0.648877	0.216381	0.149364
	H6374	H	0.648744	0.282684	0.225623
	H6375	H	0.663643	0.282430	0.211863
	H6376	H	0.648760	0.533027	0.149431
	H6377	H	0.663660	0.533911	0.163224
	H6378	H	0.663630	-0.033926	0.211907
	H6379	H	0.648735	-0.033923	0.225677
	H6380	H	0.711268	-0.033096	0.211972
	H6381	H	0.726185	-0.033519	0.225652
	H6382	H	0.711272	0.533198	0.163288
	H6383	H	0.726198	0.533073	0.149525
	Al6384	Al	0.687519	-0.500248	0.312519
	Al6385	Al	0.687516	-0.249984	0.312651
	Al6386	Al	0.624970	-0.250064	0.250106
	Al6387	Al	0.624999	-0.499643	0.250069
	O6388	O	0.697691	-0.459489	0.324413
	O6389	O	0.687518	-0.374849	0.304359
	O6390	O	0.687490	-0.124771	0.320762
	O6391	O	0.739946	-0.459440	0.363060
	O6392	O	0.677399	-0.459383	0.324450
	O6393	O	0.635082	-0.458830	0.363249
	O6394	O	0.677400	-0.291037	0.324513
	O6395	O	0.677395	-0.209012	0.300659
	O6396	O	0.635030	-0.208956	0.262062
	O6397	O	0.697594	-0.291262	0.324529
	O6398	O	0.697618	-0.209230	0.300705
	O6399	O	0.739912	-0.208557	0.262128
	O6400	O	0.635161	-0.290582	0.363339
	O6401	O	0.677393	-0.041033	0.300660
	O6402	O	0.635044	-0.040899	0.262061
	O6403	O	0.739820	-0.040362	0.261968
	O6404	O	0.697534	-0.040905	0.300573
	O6405	O	0.739917	-0.290987	0.363099
	O6406	O	0.624955	-0.125004	0.367013
	O6407	O	0.749950	-0.375337	0.258323
	C6408	C	0.722949	-0.285812	0.347688
	C6409	C	0.727285	-0.374997	0.351594
	C6410	C	0.722992	-0.464112	0.347625
	C6411	C	0.714593	-0.464393	0.339919
	C6412	C	0.710236	-0.375242	0.336072
	C6413	C	0.714545	-0.286033	0.339993
	C6414	C	0.701224	-0.375176	0.327660
	C6415	C	0.736354	-0.375048	0.359905
	C6416	C	0.673840	-0.375211	0.327708
	C6417	C	0.664753	-0.375281	0.336029
	C6418	C	0.660465	-0.286285	0.340012
	C6419	C	0.652056	-0.286032	0.347726
	C6420	C	0.647726	-0.375081	0.351668
	C6421	C	0.652024	-0.464029	0.347697
	C6422	C	0.660433	-0.464218	0.339984
	C6423	C	0.638690	-0.374696	0.360073
	C6424	C	0.673829	-0.124899	0.297486
	C6425	C	0.664766	-0.125076	0.289090
	C6426	C	0.660449	-0.035964	0.285152
	C6427	C	0.652012	-0.036119	0.277483
	C6428	C	0.647676	-0.124969	0.273595
	C6429	C	0.652038	-0.214101	0.277479
	C6430	C	0.660472	-0.214046	0.285151
	C6431	C	0.638605	-0.125009	0.265257
	C6432	C	0.701149	-0.125103	0.297467
	C6433	C	0.710168	-0.124795	0.289069
	C6434	C	0.714573	-0.214107	0.285323
	C6435	C	0.723004	-0.213584	0.277638
	C6436	C	0.727243	-0.124378	0.273600
	C6437	C	0.722802	-0.035282	0.277271
	C6438	C	0.714362	-0.035483	0.284955
	C6439	C	0.736274	-0.124475	0.265216
	H6440	H	0.726293	-0.282679	0.274752
	H6441	H	0.711415	-0.283334	0.288458
	H6442	H	0.726189	-0.216864	0.350714
	H6443	H	0.711306	-0.217192	0.336930
	H6444	H	0.687471	-0.374243	0.295352
	H6445	H	0.687356	-0.124317	0.329745
	H6446	H	0.624857	-0.124868	0.358039
	H6447	H	0.750121	-0.375179	0.267305
	H6448	H	0.663745	-0.283155	0.288144
	H6449	H	0.648811	-0.283459	0.274483
	H6450	H	0.648827	-0.217038	0.350783
	H6451	H	0.663755	-0.217453	0.337039
	H6452	H	0.648791	0.033170	0.274441
	H6453	H	0.663715	0.033323	0.288128
	H6454	H	0.663684	-0.533162	0.337022
	H6455	H	0.648800	-0.532940	0.350739
	H6456	H	0.711379	-0.533546	0.336820
	H6457	H	0.726299	-0.533097	0.350560
	H6458	H	0.711021	0.033514	0.287740
	H6459	H	0.725944	0.033850	0.274025
	Al6460	Al	0.687507	0.000115	0.312553
	Al6461	Al	0.687493	0.249929	0.312647
	Al6462	Al	0.625008	0.249927	0.250077
	Al6463	Al	0.624966	0.000037	0.250077
	O6464	O	0.697594	0.041230	0.324493
	O6465	O	0.687454	0.125022	0.304392
	O6466	O	0.687523	0.375080	0.320827
	O6467	O	0.739924	0.041349	0.363086
	O6468	O	0.677379	0.040715	0.324473
	O6469	O	0.635093	0.041104	0.363269
	O6470	O	0.677391	0.209062	0.324593
	O6471	O	0.677372	0.290862	0.300687
	O6472	O	0.635063	0.291584	0.262053
	O6473	O	0.697580	0.209257	0.324547
	O6474	O	0.697649	0.290873	0.300698
	O6475	O	0.739913	0.291189	0.262039
	O6476	O	0.635149	0.209155	0.363332
	O6477	O	0.677439	0.458993	0.300627
	O6478	O	0.635116	0.459660	0.261999
	O6479	O	0.739834	0.459339	0.261986
	O6480	O	0.697611	0.459067	0.300592
	O6481	O	0.739904	0.209550	0.363104
	O6482	O	0.625078	0.375120	0.367055
	O6483	O	0.750015	0.125160	0.258268
	C6484	C	0.722933	0.214251	0.347712
	C6485	C	0.727305	0.125142	0.351549
	C6486	C	0.723003	0.035896	0.347622
	C6487	C	0.714587	0.036045	0.339927
	C6488	C	0.710238	0.125146	0.336037
	C6489	C	0.714505	0.214486	0.340019
	C6490	C	0.701194	0.125192	0.327679
	C6491	C	0.736353	0.125472	0.359892
	C6492	C	0.673809	0.124839	0.327752
	C6493	C	0.664760	0.124864	0.336067
	C6494	C	0.660458	0.213905	0.340033
	C6495	C	0.652048	0.213944	0.347737
	C6496	C	0.647710	0.124907	0.351666
	C6497	C	0.652004	0.035952	0.347701
	C6498	C	0.660417	0.035913	0.340000
	C6499	C	0.638678	0.125387	0.360066
	C6500	C	0.673817	0.374866	0.297488
	C6501	C	0.664759	0.374933	0.289154
	C6502	C	0.660431	0.463815	0.285229
	C6503	C	0.652027	0.463982	0.277518
	C6504	C	0.647701	0.375045	0.273577
	C6505	C	0.652009	0.285841	0.277548
	C6506	C	0.660416	0.285899	0.285255
	C6507	C	0.638655	0.375498	0.265241
	C6508	C	0.701160	0.374851	0.297438
	C6509	C	0.710175	0.374942	0.289010
	C6510	C	0.714586	0.285658	0.285317
	C6511	C	0.723003	0.285801	0.277617
	C6512	C	0.727219	0.375028	0.273514
	C6513	C	0.722841	0.464422	0.277293
	C6514	C	0.714429	0.464239	0.284990
	C6515	C	0.736270	0.375041	0.265140
	H6516	H	0.726312	0.216822	0.274724
	H6517	H	0.711424	0.216493	0.288497
	H6518	H	0.726135	0.283302	0.350743
	H6519	H	0.711226	0.283708	0.337066
	H6520	H	0.687342	0.125183	0.295417
	H6521	H	0.687433	0.375352	0.329813
	H6522	H	0.625165	0.375451	0.358108
	H6523	H	0.749974	0.126038	0.267285
	H6524	H	0.663643	0.216933	0.288334
	H6525	H	0.648709	0.216972	0.274608
	H6526	H	0.648808	0.283220	0.350783
	H6527	H	0.663754	0.282962	0.337154
	H6528	H	0.648771	0.533001	0.274521
	H6529	H	0.663696	0.532700	0.288284
	H6530	H	0.663666	-0.033016	0.337030
	H6531	H	0.648722	-0.032976	0.350692
	H6532	H	0.711332	-0.033446	0.336896
	H6533	H	0.726306	-0.033042	0.350569
	H6534	H	0.711113	0.533142	0.287908
	H6535	H	0.726001	0.533485	0.274156
	Al6536	Al	0.687561	-0.499889	0.437594
	Al6537	Al	0.687557	-0.249935	0.437601
	Al6538	Al	0.625036	-0.249707	0.375205
	Al6539	Al	0.625005	-0.499905	0.375232
	O6540	O	0.697682	-0.458890	0.449446
	O6541	O	0.687550	-0.374904	0.429415
	O6542	O	0.687516	-0.125173	0.445848
	O6543	O	0.739976	-0.458938	0.488064
	O6544	O	0.677486	-0.459310	0.449563
	O6545	O	0.635149	-0.459599	0.488251
	O6546	O	0.677399	-0.291215	0.449511
	O6547	O	0.677495	-0.208911	0.425643
	O6548	O	0.635122	-0.208817	0.387141
	O6549	O	0.697661	-0.290669	0.449527
	O6550	O	0.697697	-0.209348	0.425736
	O6551	O	0.739971	-0.209097	0.387034
	O6552	O	0.635150	-0.291160	0.488147
	O6553	O	0.677431	-0.040644	0.425731
	O6554	O	0.635133	-0.040461	0.387112
	O6555	O	0.739881	-0.040968	0.386862
	O6556	O	0.697651	-0.041068	0.425693
	O6557	O	0.739956	-0.290793	0.488125
	O6558	O	0.625056	-0.125076	0.491842
	O6559	O	0.750054	-0.375201	0.383239
	C6560	C	0.722958	-0.285982	0.472736
	C6561	C	0.727321	-0.374927	0.476559
	C6562	C	0.723039	-0.463951	0.472571
	C6563	C	0.714630	-0.463692	0.464894
	C6564	C	0.710288	-0.374703	0.461006
	C6565	C	0.714561	-0.285714	0.465061
	C6566	C	0.701210	-0.374768	0.452693
	C6567	C	0.736393	-0.374834	0.484921
	C6568	C	0.673855	-0.375149	0.452705
	C6569	C	0.664810	-0.375553	0.461071
	C6570	C	0.660475	-0.286459	0.464913
	C6571	C	0.652054	-0.286704	0.472604
	C6572	C	0.647764	-0.375686	0.476599
	C6573	C	0.652110	-0.464727	0.472764
	C6574	C	0.660531	-0.464442	0.465065
	C6575	C	0.638713	-0.375430	0.484984
	C6576	C	0.673884	-0.124854	0.422497
	C6577	C	0.664858	-0.124769	0.414091
	C6578	C	0.660495	-0.035613	0.410240
	C6579	C	0.652071	-0.035870	0.402597
	C6580	C	0.647764	-0.125108	0.398645
	C6581	C	0.652124	-0.214416	0.402504
	C6582	C	0.660551	-0.214161	0.410141
	C6583	C	0.638708	-0.124582	0.390288
	C6584	C	0.701232	-0.125100	0.422500
	C6585	C	0.710241	-0.125281	0.414049
	C6586	C	0.714644	-0.214255	0.410301
	C6587	C	0.723048	-0.214018	0.402582
	C6588	C	0.727289	-0.124928	0.398516
	C6589	C	0.722877	-0.036007	0.402275
	C6590	C	0.714480	-0.036132	0.409998
	C6591	C	0.736325	-0.125047	0.390096
	H6592	H	0.726357	-0.283172	0.399666
	H6593	H	0.711475	-0.283539	0.413416
	H6594	H	0.726174	-0.217066	0.475882
	H6595	H	0.711222	-0.216560	0.462202
	H6596	H	0.687496	-0.374950	0.420442
	H6597	H	0.687573	-0.124971	0.454834
	H6598	H	0.625054	-0.124704	0.482888
	H6599	H	0.750131	-0.375020	0.392202
	H6600	H	0.663820	-0.283366	0.413184
	H6601	H	0.648874	-0.283499	0.399446
	H6602	H	0.648788	-0.217467	0.475525
	H6603	H	0.663718	-0.217549	0.461864
	H6604	H	0.648811	0.033214	0.399581
	H6605	H	0.663712	0.033621	0.413327
	H6606	H	0.663823	-0.533630	0.462109
	H6607	H	0.648874	-0.533671	0.475789
	H6608	H	0.711346	-0.532707	0.461864
	H6609	H	0.726339	-0.532924	0.475537
	H6610	H	0.711145	0.032779	0.412861
	H6611	H	0.726053	0.033218	0.399121
	Al6612	Al	0.687565	0.000112	0.437612
	Al6613	Al	0.687607	0.250096	0.437641
	Al6614	Al	0.625015	0.250176	0.375208
	Al6615	Al	0.625022	0.000237	0.375178
	O6616	O	0.697708	0.040607	0.449484
	O6617	O	0.687592	0.124927	0.429428
	O6618	O	0.687624	0.375212	0.445815
	O6619	O	0.739965	0.040786	0.488160
	O6620	O	0.677506	0.041498	0.449565
	O6621	O	0.635189	0.040879	0.488152
	O6622	O	0.677441	0.209884	0.449517
	O6623	O	0.677504	0.290494	0.425683
	O6624	O	0.635090	0.291082	0.387136
	O6625	O	0.697657	0.208878	0.449635
	O6626	O	0.697721	0.290775	0.425758
	O6627	O	0.739920	0.290841	0.386921
	O6628	O	0.635139	0.209164	0.488087
	O6629	O	0.677413	0.458914	0.425729
	O6630	O	0.635188	0.459092	0.387100
	O6631	O	0.739947	0.458787	0.386937
	O6632	O	0.697653	0.458861	0.425615
	O6633	O	0.739931	0.208989	0.488116
	O6634	O	0.625043	0.375194	0.491817
	O6635	O	0.750029	0.125150	0.383220
	C6636	C	0.722979	0.213871	0.472773
	C6637	C	0.727338	0.124636	0.476603
	C6638	C	0.723081	0.035616	0.472554
	C6639	C	0.714655	0.035704	0.464882
	C6640	C	0.710292	0.124789	0.461080
	C6641	C	0.714554	0.214033	0.465103
	C6642	C	0.701258	0.124754	0.452729
	C6643	C	0.736406	0.124863	0.484931
	C6644	C	0.673919	0.125771	0.452747
	C6645	C	0.664826	0.125474	0.461062
	C6646	C	0.660460	0.214668	0.464898
	C6647	C	0.652050	0.214285	0.472582
	C6648	C	0.647806	0.125000	0.476619
	C6649	C	0.652114	0.035919	0.472685
	C6650	C	0.660523	0.036375	0.465001
	C6651	C	0.638744	0.125180	0.484978
	C6652	C	0.673857	0.374622	0.422560
	C6653	C	0.664821	0.374277	0.414164
	C6654	C	0.660477	0.463355	0.410353
	C6655	C	0.652060	0.463610	0.402655
	C6656	C	0.647760	0.374630	0.398661
	C6657	C	0.652111	0.285454	0.402459
	C6658	C	0.660536	0.285299	0.410154
	C6659	C	0.638702	0.374825	0.390295
	C6660	C	0.701260	0.374939	0.422478
	C6661	C	0.710243	0.374952	0.414025
	C6662	C	0.714650	0.286083	0.410251
	C6663	C	0.723058	0.285955	0.402571
	C6664	C	0.727301	0.374937	0.398466
	C6665	C	0.722910	0.463899	0.402264
	C6666	C	0.714502	0.463889	0.409944
	C6667	C	0.736335	0.374832	0.390100
	H6668	H	0.726361	0.216691	0.399638
	H6669	H	0.711462	0.216945	0.413450
	H6670	H	0.726201	0.282520	0.475818
	H6671	H	0.711275	0.282927	0.462152
	H6672	H	0.687657	0.124673	0.420391
	H6673	H	0.687595	0.375332	0.454829
	H6674	H	0.625144	0.375244	0.482858
	H6675	H	0.750038	0.125334	0.392174
	H6676	H	0.663781	0.216433	0.413094
	H6677	H	0.648884	0.216528	0.399419
	H6678	H	0.648759	0.283197	0.475553
	H6679	H	0.663684	0.283740	0.461854
	H6680	H	0.648763	0.532775	0.399755
	H6681	H	0.663682	0.532242	0.413428
	H6682	H	0.663821	-0.032503	0.461999
	H6683	H	0.648891	-0.033161	0.475735
	H6684	H	0.711483	-0.033246	0.461691
	H6685	H	0.726426	-0.033390	0.475399
	H6686	H	0.711231	0.533049	0.412899
	H6687	H	0.726108	0.532937	0.399098
	Al6688	Al	0.687542	-0.499889	0.562495
	Al6689	Al	0.687578	-0.250096	0.562511
	Al6690	Al	0.625032	-0.250120	0.500037
	Al6691	Al	0.624974	-0.500060	0.500082
	O6692	O	0.697645	-0.459325	0.574447
	O6693	O	0.687559	-0.374801	0.554292
	O6694	O	0.687547	-0.125031	0.570699
	O6695	O	0.739951	-0.459161	0.613090
	O6696	O	0.677442	-0.459261	0.574449
	O6697	O	0.635169	-0.458959	0.613008
	O6698	O	0.677519	-0.291203	0.574462
	O6699	O	0.677431	-0.209266	0.550625
	O6700	O	0.635137	-0.209307	0.511964
	O6701	O	0.697638	-0.291270	0.574460
	O6702	O	0.697638	-0.208672	0.550538
	O6703	O	0.739954	-0.208764	0.511872
	O6704	O	0.635142	-0.290635	0.613087
	O6705	O	0.677444	-0.041152	0.550591
	O6706	O	0.635116	-0.041026	0.512009
	O6707	O	0.740006	-0.040517	0.511953
	O6708	O	0.697671	-0.040315	0.550514
	O6709	O	0.739948	-0.291207	0.613106
	O6710	O	0.625033	-0.124984	0.616763
	O6711	O	0.750034	-0.375109	0.508264
	C6712	C	0.722969	-0.286238	0.597657
	C6713	C	0.727330	-0.375195	0.601526
	C6714	C	0.723047	-0.464385	0.597566
	C6715	C	0.714620	-0.464383	0.589884
	C6716	C	0.710247	-0.375508	0.586014
	C6717	C	0.714539	-0.286467	0.589976
	C6718	C	0.701194	-0.375303	0.577655
	C6719	C	0.736367	-0.375252	0.609910
	C6720	C	0.673908	-0.375043	0.577628
	C6721	C	0.664852	-0.374728	0.585986
	C6722	C	0.660529	-0.285514	0.589852
	C6723	C	0.652076	-0.285485	0.597520
	C6724	C	0.647775	-0.374583	0.601483
	C6725	C	0.652127	-0.463696	0.597648
	C6726	C	0.660562	-0.463797	0.589988
	C6727	C	0.638727	-0.374591	0.609838
	C6728	C	0.673861	-0.125176	0.547426
	C6729	C	0.664833	-0.125017	0.539010
	C6730	C	0.660495	-0.036101	0.535142
	C6731	C	0.652052	-0.036038	0.527470
	C6732	C	0.647756	-0.125118	0.523516
	C6733	C	0.652096	-0.213938	0.527376
	C6734	C	0.660550	-0.214021	0.535038
	C6735	C	0.638708	-0.125194	0.515174
	C6736	C	0.701252	-0.124621	0.547381
	C6737	C	0.710306	-0.124786	0.539025
	C6738	C	0.714632	-0.213723	0.535129
	C6739	C	0.723060	-0.213875	0.527459
	C6740	C	0.727377	-0.124920	0.523526
	C6741	C	0.723032	-0.036106	0.527420
	C6742	C	0.714618	-0.035788	0.535093
	C6743	C	0.736411	-0.124620	0.515139
	H6744	H	0.726325	-0.282756	0.524466
	H6745	H	0.711379	-0.282334	0.538113
	H6746	H	0.726171	-0.217317	0.600717
	H6747	H	0.711238	-0.217530	0.587033
	H6748	H	0.687514	-0.374728	0.545313
	H6749	H	0.687478	-0.125147	0.579654
	H6750	H	0.625014	-0.125159	0.607790
	H6751	H	0.750053	-0.375756	0.517262
	H6752	H	0.663811	-0.282905	0.538083
	H6753	H	0.648895	-0.282824	0.524289
	H6754	H	0.648810	-0.216215	0.600447
	H6755	H	0.663783	-0.216359	0.586810
	H6756	H	0.648802	0.032998	0.524465
	H6757	H	0.663710	0.032895	0.538235
	H6758	H	0.663834	-0.532827	0.587027
	H6759	H	0.648912	-0.532693	0.600709
	H6760	H	0.711397	-0.533235	0.586862
	H6761	H	0.726298	-0.533371	0.600503
	H6762	H	0.711375	0.033069	0.538105
	H6763	H	0.726294	0.032748	0.524394
	Al6764	Al	0.687554	-0.000250	0.562475
	Al6765	Al	0.687513	0.249868	0.562550
	Al6766	Al	0.625021	0.250035	0.500020
	Al6767	Al	0.625042	-0.000035	0.500013
	O6768	O	0.697607	0.040849	0.574452
	O6769	O	0.687580	0.125136	0.554303
	O6770	O	0.687554	0.375377	0.570705
	O6771	O	0.739980	0.041576	0.613021
	O6772	O	0.677394	0.040562	0.574406
	O6773	O	0.635148	0.040925	0.613063
	O6774	O	0.677434	0.208854	0.574441
	O6775	O	0.677425	0.290930	0.550568
	O6776	O	0.635155	0.290996	0.511897
	O6777	O	0.697612	0.208997	0.574464
	O6778	O	0.697662	0.290728	0.550651
	O6779	O	0.739919	0.290806	0.511908
	O6780	O	0.635158	0.209040	0.613091
	O6781	O	0.677434	0.459262	0.550549
	O6782	O	0.635077	0.458975	0.512044
	O6783	O	0.739936	0.459024	0.511945
	O6784	O	0.697645	0.458961	0.550569
	O6785	O	0.739945	0.209621	0.613020
	O6786	O	0.625108	0.374877	0.616739
	O6787	O	0.750072	0.124928	0.508279
	C6788	C	0.722974	0.214170	0.597566
	C6789	C	0.727303	0.125174	0.601500
	C6790	C	0.723013	0.036183	0.597541
	C6791	C	0.714564	0.035962	0.589902
	C6792	C	0.710220	0.124926	0.586011
	C6793	C	0.714535	0.213910	0.589911
	C6794	C	0.701144	0.124784	0.577695
	C6795	C	0.736367	0.125489	0.609860
	C6796	C	0.673851	0.124683	0.577610
	C6797	C	0.664785	0.124854	0.585965
	C6798	C	0.660408	0.213801	0.589797
	C6799	C	0.652014	0.213873	0.597498
	C6800	C	0.647769	0.124765	0.601539
	C6801	C	0.652076	0.035758	0.597603
	C6802	C	0.660474	0.035762	0.589896
	C6803	C	0.638728	0.125035	0.609914
	C6804	C	0.673853	0.375168	0.547372
	C6805	C	0.664807	0.375163	0.539031
	C6806	C	0.660475	0.464137	0.535112
	C6807	C	0.652056	0.464220	0.527446
	C6808	C	0.647736	0.375041	0.523526
	C6809	C	0.652116	0.286034	0.527357
	C6810	C	0.660527	0.286249	0.535037
	C6811	C	0.638713	0.374973	0.515124
	C6812	C	0.701234	0.374742	0.547431
	C6813	C	0.710287	0.374791	0.539072
	C6814	C	0.714636	0.285973	0.535167
	C6815	C	0.723041	0.286048	0.527454
	C6816	C	0.727335	0.375017	0.523527
	C6817	C	0.722999	0.463956	0.527442
	C6818	C	0.714595	0.463772	0.535145
	C6819	C	0.736358	0.375111	0.515112
	H6820	H	0.726304	0.217372	0.524425
	H6821	H	0.711409	0.217069	0.538174
	H6822	H	0.726194	0.283296	0.600608
	H6823	H	0.711249	0.282864	0.586944
	H6824	H	0.687715	0.125233	0.545355
	H6825	H	0.687624	0.375285	0.579693
	H6826	H	0.625229	0.375004	0.607759
	H6827	H	0.750021	0.124020	0.517256
	H6828	H	0.663806	0.217199	0.538016
	H6829	H	0.648959	0.217214	0.524168
	H6830	H	0.648708	0.282805	0.600432
	H6831	H	0.663629	0.282808	0.586700
	H6832	H	0.648826	0.533014	0.524351
	H6833	H	0.663727	0.533291	0.538123
	H6834	H	0.663749	-0.032780	0.586848
	H6835	H	0.648819	-0.033016	0.600642
	H6836	H	0.711326	-0.033259	0.586912
	H6837	H	0.726270	-0.032701	0.600567
	H6838	H	0.711339	0.532583	0.538172
	H6839	H	0.726247	0.532816	0.524405
	Al6840	Al	0.687553	-0.500085	0.687519
	Al6841	Al	0.687491	-0.250214	0.687501
	Al6842	Al	0.625016	-0.249953	0.624968
	Al6843	Al	0.625038	-0.500085	0.624973
	O6844	O	0.697584	-0.458683	0.699484
	O6845	O	0.687516	-0.375123	0.679333
	O6846	O	0.687503	-0.125164	0.695679
	O6847	O	0.739881	-0.458769	0.738152
	O6848	O	0.677412	-0.459113	0.699471
	O6849	O	0.635068	-0.458986	0.738052
	O6850	O	0.677371	-0.290938	0.699497
	O6851	O	0.677420	-0.208929	0.675524
	O6852	O	0.635052	-0.208779	0.636984
	O6853	O	0.697691	-0.290547	0.699386
	O6854	O	0.697556	-0.209121	0.675458
	O6855	O	0.739929	-0.209077	0.636934
	O6856	O	0.635086	-0.290691	0.738070
	O6857	O	0.677464	-0.040942	0.675478
	O6858	O	0.635113	-0.040685	0.636923
	O6859	O	0.739952	-0.040978	0.636981
	O6860	O	0.697643	-0.040773	0.675629
	O6861	O	0.739883	-0.290646	0.738115
	O6862	O	0.624995	-0.124922	0.741780
	O6863	O	0.750029	-0.374939	0.633236
	C6864	C	0.722992	-0.285887	0.722578
	C6865	C	0.727285	-0.375021	0.726537
	C6866	C	0.722948	-0.464266	0.722688
	C6867	C	0.714526	-0.463869	0.714972
	C6868	C	0.710248	-0.374610	0.710985
	C6869	C	0.714583	-0.285442	0.714854
	C6870	C	0.701203	-0.374731	0.702609
	C6871	C	0.736316	-0.374833	0.734936
	C6872	C	0.673840	-0.375251	0.702669
	C6873	C	0.664760	-0.375209	0.710991
	C6874	C	0.660437	-0.286076	0.714870
	C6875	C	0.652019	-0.285928	0.722555
	C6876	C	0.647705	-0.375062	0.726494
	C6877	C	0.652042	-0.464216	0.722621
	C6878	C	0.660465	-0.464221	0.714948
	C6879	C	0.638662	-0.374922	0.734862
	C6880	C	0.673868	-0.125075	0.672307
	C6881	C	0.664837	-0.124911	0.663923
	C6882	C	0.660537	-0.036030	0.659940
	C6883	C	0.652105	-0.035927	0.652301
	C6884	C	0.647733	-0.124880	0.648456
	C6885	C	0.652000	-0.213932	0.652489
	C6886	C	0.660430	-0.213853	0.660112
	C6887	C	0.638657	-0.124818	0.640155
	C6888	C	0.701195	-0.125010	0.672374
	C6889	C	0.710252	-0.125034	0.664054
	C6890	C	0.714524	-0.214087	0.660027
	C6891	C	0.722961	-0.214244	0.652399
	C6892	C	0.727322	-0.125229	0.648551
	C6893	C	0.723015	-0.036188	0.652490
	C6894	C	0.714586	-0.036013	0.660157
	C6895	C	0.736375	-0.125022	0.640175
	H6896	H	0.726148	-0.283241	0.649258
	H6897	H	0.711256	-0.283250	0.662981
	H6898	H	0.726255	-0.216604	0.725543
	H6899	H	0.711360	-0.216365	0.711832
	H6900	H	0.687622	-0.375215	0.670393
	H6901	H	0.687526	-0.125133	0.704650
	H6902	H	0.625052	-0.125172	0.732784
	H6903	H	0.749970	-0.374469	0.642250
	H6904	H	0.663653	-0.282731	0.663262
	H6905	H	0.648691	-0.283068	0.649599
	H6906	H	0.648777	-0.216969	0.725557
	H6907	H	0.663718	-0.217111	0.711867
	H6908	H	0.648840	0.032893	0.649253
	H6909	H	0.663819	0.032776	0.662909
	H6910	H	0.663751	-0.533194	0.712017
	H6911	H	0.648800	-0.533389	0.725677
	H6912	H	0.711237	-0.532848	0.712018
	H6913	H	0.726182	-0.533439	0.725719
	H6914	H	0.711326	0.033275	0.663216
	H6915	H	0.726291	0.032959	0.649482
	Al6916	Al	0.687544	-0.000234	0.687467
	Al6917	Al	0.687530	0.249982	0.687533
	Al6918	Al	0.625011	0.249800	0.624967
	Al6919	Al	0.624998	-0.000024	0.624967
	O6920	O	0.697590	0.040776	0.699524
	O6921	O	0.687539	0.125133	0.679314
	O6922	O	0.687551	0.375240	0.695718
	O6923	O	0.739866	0.040490	0.738143
	O6924	O	0.677425	0.040859	0.699395
	O6925	O	0.635122	0.040686	0.738058
	O6926	O	0.677395	0.209121	0.699413
	O6927	O	0.677464	0.290869	0.675527
	O6928	O	0.635109	0.290609	0.636924
	O6929	O	0.697641	0.208899	0.699452
	O6930	O	0.697623	0.290974	0.675616
	O6931	O	0.739953	0.291129	0.636998
	O6932	O	0.635138	0.209133	0.738121
	O6933	O	0.677422	0.459125	0.675547
	O6934	O	0.635181	0.458883	0.636858
	O6935	O	0.739888	0.459193	0.636917
	O6936	O	0.697650	0.459196	0.675598
	O6937	O	0.739916	0.208743	0.738070
	O6938	O	0.625036	0.374675	0.741781
	O6939	O	0.749966	0.125107	0.633212
	C6940	C	0.723033	0.213918	0.722510
	C6941	C	0.727261	0.124837	0.726571
	C6942	C	0.722883	0.035754	0.722795
	C6943	C	0.714476	0.035689	0.715087
	C6944	C	0.710220	0.124764	0.711057
	C6945	C	0.714623	0.213995	0.714786
	C6946	C	0.701197	0.124574	0.702641
	C6947	C	0.736314	0.124828	0.734908
	C6948	C	0.673844	0.124967	0.702596
	C6949	C	0.664773	0.124872	0.710957
	C6950	C	0.660482	0.214100	0.714940
	C6951	C	0.652056	0.213911	0.722610
	C6952	C	0.647710	0.124778	0.726462
	C6953	C	0.651990	0.035498	0.722509
	C6954	C	0.660416	0.035641	0.714811
	C6955	C	0.638696	0.125104	0.734891
	C6956	C	0.673864	0.374925	0.672350
	C6957	C	0.664798	0.374770	0.664032
	C6958	C	0.660512	0.463794	0.660019
	C6959	C	0.652095	0.463496	0.652310
	C6960	C	0.647727	0.374359	0.648501
	C6961	C	0.652028	0.285230	0.652486
	C6962	C	0.660454	0.285430	0.660184
	C6963	C	0.638703	0.374673	0.640097
	C6964	C	0.701216	0.374984	0.672398
	C6965	C	0.710247	0.374963	0.664030
	C6966	C	0.714525	0.285982	0.660042
	C6967	C	0.722973	0.285924	0.652371
	C6968	C	0.727310	0.375076	0.648520
	C6969	C	0.723033	0.464166	0.652516
	C6970	C	0.714600	0.464092	0.660210
	C6971	C	0.736351	0.375130	0.640139
	H6972	H	0.726177	0.217070	0.649303
	H6973	H	0.711226	0.217129	0.662984
	H6974	H	0.726363	0.283056	0.725383
	H6975	H	0.711459	0.283210	0.711598
	H6976	H	0.687490	0.125610	0.670318
	H6977	H	0.687448	0.375153	0.704696
	H6978	H	0.625050	0.374813	0.732765
	H6979	H	0.749963	0.125513	0.642269
	H6980	H	0.663708	0.216318	0.663211
	H6981	H	0.648763	0.215847	0.649524
	H6982	H	0.648840	0.283113	0.725722
	H6983	H	0.663753	0.283248	0.712026
	H6984	H	0.648870	0.532664	0.649213
	H6985	H	0.663800	0.532991	0.662914
	H6986	H	0.663663	-0.033414	0.711773
	H6987	H	0.648753	-0.033783	0.725529
	H6988	H	0.711196	-0.033186	0.712135
	H6989	H	0.726089	-0.033398	0.725844
	H6990	H	0.711425	0.533301	0.663309
	H6991	H	0.726309	0.533308	0.649564
	Al6992	Al	0.687408	-0.499759	0.812522
	Al6993	Al	0.687481	-0.249769	0.812444
	Al6994	Al	0.624956	-0.250411	0.749984
	Al6995	Al	0.624964	-0.500099	0.749955
	O6996	O	0.697564	-0.458948	0.824389
	O6997	O	0.687480	-0.374829	0.804302
	O6998	O	0.687483	-0.124872	0.820616
	O6999	O	0.739881	-0.459321	0.863126
	O7000	O	0.677302	-0.458860	0.824365
	O7001	O	0.635096	-0.459052	0.863173
	O7002	O	0.677328	-0.290444	0.824330
	O7003	O	0.677394	-0.209191	0.800520
	O7004	O	0.635005	-0.209322	0.762043
	O7005	O	0.697619	-0.290565	0.824370
	O7006	O	0.697583	-0.208708	0.800515
	O7007	O	0.739906	-0.209573	0.761954
	O7008	O	0.635130	-0.290909	0.863187
	O7009	O	0.677415	-0.040778	0.800496
	O7010	O	0.635128	-0.041002	0.761934
	O7011	O	0.739927	-0.041373	0.761983
	O7012	O	0.697585	-0.040614	0.800577
	O7013	O	0.739859	-0.291111	0.863116
	O7014	O	0.624955	-0.124999	0.866885
	O7015	O	0.750011	-0.374751	0.758314
	C7016	C	0.722924	-0.286343	0.847668
	C7017	C	0.727248	-0.375464	0.851562
	C7018	C	0.722974	-0.464565	0.847553
	C7019	C	0.714578	-0.464648	0.839816
	C7020	C	0.710238	-0.375401	0.835955
	C7021	C	0.714542	-0.286405	0.839934
	C7022	C	0.701166	-0.374889	0.827584
	C7023	C	0.736312	-0.375260	0.859911
	C7024	C	0.673762	-0.374634	0.827556
	C7025	C	0.664695	-0.374715	0.835882
	C7026	C	0.660440	-0.285538	0.839942
	C7027	C	0.652047	-0.285748	0.847679
	C7028	C	0.647696	-0.375024	0.851510
	C7029	C	0.651967	-0.464204	0.847474
	C7030	C	0.660364	-0.464065	0.839740
	C7031	C	0.638666	-0.375069	0.859949
	C7032	C	0.673819	-0.124955	0.797345
	C7033	C	0.664786	-0.125185	0.788964
	C7034	C	0.660529	-0.036198	0.784928
	C7035	C	0.652108	-0.036128	0.777235
	C7036	C	0.647723	-0.125198	0.773479
	C7037	C	0.651978	-0.214304	0.777502
	C7038	C	0.660400	-0.214261	0.785193
	C7039	C	0.638635	-0.125264	0.765156
	C7040	C	0.701147	-0.124693	0.797373
	C7041	C	0.710207	-0.124840	0.788990
	C7042	C	0.714535	-0.214064	0.785104
	C7043	C	0.722961	-0.214267	0.777442
	C7044	C	0.727286	-0.125387	0.773515
	C7045	C	0.722974	-0.036163	0.777440
	C7046	C	0.714554	-0.036012	0.785107
	C7047	C	0.736318	-0.125448	0.765116
	H7048	H	0.726204	-0.283199	0.774393
	H7049	H	0.711270	-0.282912	0.788084
	H7050	H	0.726162	-0.217482	0.850693
	H7051	H	0.711295	-0.217457	0.836890
	H7052	H	0.687463	-0.375035	0.795296
	H7053	H	0.687498	-0.125099	0.829579
	H7054	H	0.624955	-0.125110	0.857952
	H7055	H	0.749859	-0.374341	0.767288
	H7056	H	0.663588	-0.283448	0.788302
	H7057	H	0.648648	-0.283504	0.774604
	H7058	H	0.648844	-0.216740	0.850794
	H7059	H	0.663780	-0.216429	0.837079
	H7060	H	0.648904	0.033079	0.774187
	H7061	H	0.663834	0.032659	0.787849
	H7062	H	0.663623	-0.533019	0.836729
	H7063	H	0.648717	-0.533181	0.850462
	H7064	H	0.711372	-0.533474	0.836681
	H7065	H	0.726254	-0.533522	0.850497
	H7066	H	0.711283	0.033050	0.788130
	H7067	H	0.726238	0.032841	0.774426
	Al7068	Al	0.687490	0.000362	0.812480
	Al7069	Al	0.687434	0.250266	0.812501
	Al7070	Al	0.624991	0.249770	0.749995
	Al7071	Al	0.625002	0.000172	0.750057
	O7072	O	0.697545	0.041088	0.824502
	O7073	O	0.687459	0.125267	0.804337
	O7074	O	0.687477	0.375306	0.820759
	O7075	O	0.739807	0.040407	0.863176
	O7076	O	0.677325	0.040834	0.824340
	O7077	O	0.635087	0.040230	0.863181
	O7078	O	0.677307	0.208998	0.824424
	O7079	O	0.677335	0.290900	0.800579
	O7080	O	0.635056	0.290877	0.761896
	O7081	O	0.697608	0.209550	0.824392
	O7082	O	0.697521	0.290617	0.800554
	O7083	O	0.739842	0.290676	0.762012
	O7084	O	0.635092	0.208535	0.863190
	O7085	O	0.677318	0.459106	0.800534
	O7086	O	0.635114	0.459262	0.761863
	O7087	O	0.739871	0.458895	0.762031
	O7088	O	0.697560	0.458734	0.800624
	O7089	O	0.739926	0.208559	0.863046
	O7090	O	0.624969	0.374608	0.866813
	O7091	O	0.749964	0.124665	0.758243
	C7092	C	0.722991	0.213862	0.847551
	C7093	C	0.727289	0.124666	0.851475
	C7094	C	0.722937	0.035595	0.847589
	C7095	C	0.714509	0.035983	0.839915
	C7096	C	0.710225	0.125162	0.835961
	C7097	C	0.714569	0.214158	0.839870
	C7098	C	0.701143	0.125149	0.827617
	C7099	C	0.736324	0.124532	0.859887
	C7100	C	0.673760	0.124787	0.827599
	C7101	C	0.664708	0.124772	0.835977
	C7102	C	0.660463	0.213786	0.840046
	C7103	C	0.652061	0.213611	0.847776
	C7104	C	0.647686	0.124489	0.851593
	C7105	C	0.651929	0.035560	0.847519
	C7106	C	0.660350	0.035639	0.839818
	C7107	C	0.638642	0.124532	0.859959
	C7108	C	0.673776	0.375098	0.797360
	C7109	C	0.664732	0.374870	0.788945
	C7110	C	0.660464	0.463889	0.784969
	C7111	C	0.652052	0.463726	0.777270
	C7112	C	0.647704	0.374742	0.773422
	C7113	C	0.651954	0.285699	0.777442
	C7114	C	0.660375	0.285803	0.785146
	C7115	C	0.638652	0.375026	0.765071
	C7116	C	0.701130	0.374569	0.797419
	C7117	C	0.710163	0.374825	0.789065
	C7118	C	0.714475	0.285705	0.785150
	C7119	C	0.722905	0.285495	0.777465
	C7120	C	0.727247	0.374574	0.773564
	C7121	C	0.722925	0.463742	0.777452
	C7122	C	0.714492	0.463961	0.785145
	C7123	C	0.736272	0.374929	0.765189
	H7124	H	0.726086	0.216453	0.774426
	H7125	H	0.711239	0.216634	0.788185
	H7126	H	0.726256	0.282629	0.850552
	H7127	H	0.711340	0.283361	0.836840
	H7128	H	0.687521	0.125453	0.795325
	H7129	H	0.687680	0.375118	0.829785
	H7130	H	0.624914	0.374222	0.857799
	H7131	H	0.750067	0.124526	0.767215
	H7132	H	0.663610	0.217180	0.788250
	H7133	H	0.648675	0.216761	0.774489
	H7134	H	0.648856	0.282716	0.850886
	H7135	H	0.663774	0.282689	0.837176
	H7136	H	0.648795	0.532634	0.774290
	H7137	H	0.663693	0.532297	0.787968
	H7138	H	0.663566	-0.033226	0.836740
	H7139	H	0.648639	-0.033624	0.850421
	H7140	H	0.711234	-0.032953	0.836930
	H7141	H	0.726176	-0.033504	0.850607
	H7142	H	0.711305	0.533010	0.788191
	H7143	H	0.726188	0.532373	0.774393
	Al7144	Al	0.687478	-0.500231	0.937436
	Al7145	Al	0.687507	-0.250235	0.937418
	Al7146	Al	0.624972	-0.249942	0.875119
	Al7147	Al	0.624971	-0.499988	0.874989
	O7148	O	0.697566	-0.459267	0.949323
	O7149	O	0.687468	-0.375332	0.929253
	O7150	O	0.687464	-0.125295	0.945581
	O7151	O	0.739867	-0.458850	0.988077
	O7152	O	0.677330	-0.459206	0.949363
	O7153	O	0.635100	-0.458696	0.988103
	O7154	O	0.677373	-0.291033	0.949376
	O7155	O	0.677354	-0.209185	0.925539
	O7156	O	0.635034	-0.209230	0.887067
	O7157	O	0.697608	-0.290946	0.949358
	O7158	O	0.697613	-0.209188	0.925555
	O7159	O	0.739850	-0.209134	0.886824
	O7160	O	0.635135	-0.290604	0.988138
	O7161	O	0.677397	-0.041090	0.925439
	O7162	O	0.635067	-0.040877	0.886978
	O7163	O	0.739865	-0.041144	0.886854
	O7164	O	0.697592	-0.041005	0.925485
	O7165	O	0.739822	-0.290996	0.988074
	O7166	O	0.624902	-0.125333	0.991809
	O7167	O	0.749981	-0.374731	0.883227
	C7168	C	0.722856	-0.286299	0.972593
	C7169	C	0.727236	-0.375164	0.976468
	C7170	C	0.722925	-0.464118	0.972561
	C7171	C	0.714515	-0.464355	0.964870
	C7172	C	0.710173	-0.375517	0.960919
	C7173	C	0.714441	-0.286625	0.964901
	C7174	C	0.701161	-0.375332	0.952551
	C7175	C	0.736279	-0.375074	0.984861
	C7176	C	0.673760	-0.375026	0.952546
	C7177	C	0.664749	-0.374816	0.960961
	C7178	C	0.660455	-0.285720	0.964942
	C7179	C	0.652061	-0.285716	0.972676
	C7180	C	0.647718	-0.374746	0.976520
	C7181	C	0.651994	-0.463780	0.972508
	C7182	C	0.660392	-0.463632	0.964785
	C7183	C	0.638686	-0.374676	0.984922
	C7184	C	0.673818	-0.124942	0.922326
	C7185	C	0.664757	-0.124964	0.913972
	C7186	C	0.660479	-0.035857	0.909985
	C7187	C	0.652050	-0.035844	0.902334
	C7188	C	0.647682	-0.124960	0.898552
	C7189	C	0.651982	-0.213868	0.902497
	C7190	C	0.660403	-0.213946	0.910128
	C7191	C	0.638647	-0.125296	0.890175
	C7192	C	0.701182	-0.125019	0.922331
	C7193	C	0.710239	-0.124933	0.913980
	C7194	C	0.714504	-0.213704	0.909965
	C7195	C	0.722910	-0.213853	0.902262
	C7196	C	0.727248	-0.125067	0.898397
	C7197	C	0.722980	-0.036115	0.902370
	C7198	C	0.714567	-0.036121	0.910077
	C7199	C	0.736301	-0.125024	0.890047
	H7200	H	0.726098	-0.282639	0.899172
	H7201	H	0.711224	-0.282699	0.912932
	H7202	H	0.726046	-0.217330	0.975659
	H7203	H	0.711117	-0.217629	0.961964
	H7204	H	0.687418	-0.375698	0.920253
	H7205	H	0.687249	-0.125608	0.954528
	H7206	H	0.624890	-0.125234	0.982787
	H7207	H	0.749829	-0.374757	0.892189
	H7208	H	0.663645	-0.282972	0.913190
	H7209	H	0.648728	-0.282774	0.899495
	H7210	H	0.648840	-0.216579	0.975750
	H7211	H	0.663727	-0.216756	0.961953
	H7212	H	0.648858	0.033048	0.899167
	H7213	H	0.663795	0.032919	0.912901
	H7214	H	0.663583	-0.532668	0.961703
	H7215	H	0.648699	-0.532753	0.975478
	H7216	H	0.711274	-0.533630	0.961876
	H7217	H	0.726189	-0.532914	0.975606
	H7218	H	0.711363	0.032974	0.913147
	H7219	H	0.726222	0.032944	0.899349
	Al7220	Al	0.687498	-0.000229	0.937416
	Al7221	Al	0.687458	0.249834	0.937492
	Al7222	Al	0.624951	0.249870	0.875036
	Al7223	Al	0.624933	0.000029	0.875026
	O7224	O	0.697592	0.040704	0.949336
	O7225	O	0.687492	0.124845	0.929280
	O7226	O	0.687434	0.374835	0.945709
	O7227	O	0.739865	0.040985	0.988051
	O7228	O	0.677371	0.040382	0.949388
	O7229	O	0.635124	0.040735	0.988187
	O7230	O	0.677387	0.208473	0.949472
	O7231	O	0.677289	0.290754	0.925634
	O7232	O	0.635122	0.290475	0.886895
	O7233	O	0.697634	0.208846	0.949328
	O7234	O	0.697580	0.290746	0.925614
	O7235	O	0.739793	0.290588	0.886828
	O7236	O	0.635085	0.208817	0.988034
	O7237	O	0.677390	0.458672	0.925514
	O7238	O	0.635074	0.458633	0.886875
	O7239	O	0.739848	0.458916	0.886886
	O7240	O	0.697575	0.459037	0.925600
	O7241	O	0.739874	0.209055	0.988040
	O7242	O	0.625046	0.374832	0.991807
	O7243	O	0.749971	0.124891	0.883250
	C7244	C	0.722905	0.214060	0.972530
	C7245	C	0.727221	0.125289	0.976520
	C7246	C	0.722911	0.036101	0.972594
	C7247	C	0.714510	0.035823	0.964882
	C7248	C	0.710174	0.124570	0.960937
	C7249	C	0.714501	0.213796	0.964809
	C7250	C	0.701162	0.124791	0.952539
	C7251	C	0.736289	0.125125	0.984864
	C7252	C	0.673759	0.124437	0.952560
	C7253	C	0.664714	0.124378	0.960904
	C7254	C	0.660417	0.213324	0.964861
	C7255	C	0.652008	0.213521	0.972578
	C7256	C	0.647665	0.124519	0.976459
	C7257	C	0.651969	0.035695	0.972528
	C7258	C	0.660380	0.035581	0.964818
	C7259	C	0.638675	0.124675	0.984915
	C7260	C	0.673784	0.374647	0.922418
	C7261	C	0.664753	0.374635	0.913993
	C7262	C	0.660458	0.463649	0.910004
	C7263	C	0.652063	0.463831	0.902299
	C7264	C	0.647716	0.374866	0.898422
	C7265	C	0.651993	0.285729	0.902423
	C7266	C	0.660391	0.285604	0.910137
	C7267	C	0.638678	0.374754	0.890058
	C7268	C	0.701148	0.375073	0.922397
	C7269	C	0.710196	0.375148	0.914046
	C7270	C	0.714451	0.285986	0.910029
	C7271	C	0.722865	0.285962	0.902307
	C7272	C	0.727216	0.375010	0.898449
	C7273	C	0.722940	0.464223	0.902460
	C7274	C	0.714529	0.464320	0.910177
	C7275	C	0.736275	0.374719	0.890082
	H7276	H	0.726097	0.216953	0.899253
	H7277	H	0.711171	0.216796	0.912935
	H7278	H	0.726153	0.283165	0.975485
	H7279	H	0.711265	0.282462	0.961723
	H7280	H	0.687474	0.124685	0.920274
	H7281	H	0.687524	0.375135	0.954677
	H7282	H	0.625114	0.375053	0.982881
	H7283	H	0.749830	0.124659	0.892189
	H7284	H	0.663591	0.216616	0.913238
	H7285	H	0.648691	0.216842	0.899505
	H7286	H	0.648792	0.282482	0.975671
	H7287	H	0.663676	0.282387	0.961896
	H7288	H	0.648815	0.533102	0.899269
	H7289	H	0.663749	0.532564	0.912986
	H7290	H	0.663618	-0.033312	0.961793
	H7291	H	0.648737	-0.033420	0.975581
	H7292	H	0.711261	-0.033025	0.961854
	H7293	H	0.726179	-0.032594	0.975615
	H7294	H	0.711320	0.533292	0.913250
	H7295	H	0.726206	0.533070	0.899553
	Al7296	Al	0.812489	-0.500064	0.062573
	Al7297	Al	0.812415	-0.250103	0.062534
	Al7298	Al	0.749953	-0.250158	-0.000001
	Al7299	Al	0.749946	-0.499993	0.000014
	O7300	O	0.822482	-0.459077	0.074598
	O7301	O	0.812518	-0.375134	0.054322
	O7302	O	0.812418	-0.125121	0.070729
	O7303	O	0.864790	-0.459425	0.113115
	O7304	O	0.802357	-0.459371	0.074468
	O7305	O	0.760082	-0.459762	0.113152
	O7306	O	0.802343	-0.291056	0.074474
	O7307	O	0.802370	-0.209466	0.050593
	O7308	O	0.760104	-0.209443	0.011854
	O7309	O	0.822532	-0.290962	0.074485
	O7310	O	0.822568	-0.209479	0.050651
	O7311	O	0.864786	-0.209505	0.011925
	O7312	O	0.760034	-0.291346	0.113003
	O7313	O	0.802322	-0.041244	0.050598
	O7314	O	0.760070	-0.041265	0.011882
	O7315	O	0.864843	-0.041121	0.011980
	O7316	O	0.822519	-0.041125	0.050715
	O7317	O	0.864893	-0.291179	0.113007
	O7318	O	0.750002	-0.124977	0.116824
	O7319	O	0.874946	-0.375103	0.008249
	C7320	C	0.847980	-0.285805	0.097502
	C7321	C	0.852218	-0.375067	0.101531
	C7322	C	0.847856	-0.464120	0.097713
	C7323	C	0.839425	-0.464147	0.090065
	C7324	C	0.835143	-0.374986	0.086086
	C7325	C	0.839554	-0.285927	0.089847
	C7326	C	0.826086	-0.374993	0.077705
	C7327	C	0.861269	-0.375203	0.109891
	C7328	C	0.798770	-0.375261	0.077609
	C7329	C	0.789741	-0.375617	0.086028
	C7330	C	0.785376	-0.286459	0.089866
	C7331	C	0.776959	-0.286625	0.097560
	C7332	C	0.772670	-0.375759	0.101490
	C7333	C	0.777048	-0.464965	0.097686
	C7334	C	0.785466	-0.464926	0.089982
	C7335	C	0.763645	-0.375644	0.109892
	C7336	C	0.798750	-0.125359	0.047451
	C7337	C	0.789705	-0.125511	0.039083
	C7338	C	0.785419	-0.036367	0.035117
	C7339	C	0.776998	-0.036346	0.027404
	C7340	C	0.772665	-0.125362	0.023501
	C7341	C	0.776978	-0.214464	0.027410
	C7342	C	0.785395	-0.214567	0.035110
	C7343	C	0.763651	-0.125468	0.015099
	C7344	C	0.826111	-0.125022	0.047487
	C7345	C	0.835144	-0.124981	0.039094
	C7346	C	0.839420	-0.214222	0.035083
	C7347	C	0.847832	-0.214208	0.027364
	C7348	C	0.852185	-0.125111	0.023536
	C7349	C	0.847912	-0.036011	0.027531
	C7350	C	0.839505	-0.035890	0.035258
	C7351	C	0.861227	-0.125070	0.015131
	H7352	H	0.851032	-0.283318	0.024239
	H7353	H	0.836152	-0.283501	0.038022
	H7354	H	0.851291	-0.216703	0.100445
	H7355	H	0.836375	-0.217037	0.086682
	H7356	H	0.812573	-0.374663	0.045332
	H7357	H	0.812502	-0.125003	0.079747
	H7358	H	0.750067	-0.124688	0.107883
	H7359	H	0.874907	-0.374471	0.017181
	H7360	H	0.788604	-0.283739	0.038088
	H7361	H	0.773752	-0.283278	0.024300
	H7362	H	0.773672	-0.217593	0.100482
	H7363	H	0.788613	-0.217442	0.086816
	H7364	H	0.773807	0.032641	0.024351
	H7365	H	0.788696	0.032495	0.038114
	H7366	H	0.788757	-0.534002	0.087058
	H7367	H	0.773808	-0.534048	0.100725
	H7368	H	0.836142	-0.533367	0.087079
	H7369	H	0.851074	-0.533113	0.100815
	H7370	H	0.836273	0.033396	0.038328
	H7371	H	0.851170	0.033345	0.024540
	Al7372	Al	0.812397	-0.000046	0.062538
	Al7373	Al	0.812500	0.249782	0.062456
	Al7374	Al	0.749949	0.249819	0.000006
	Al7375	Al	0.749943	-0.000025	-0.000041
	O7376	O	0.822518	0.040882	0.074445
	O7377	O	0.812417	0.124726	0.054303
	O7378	O	0.812390	0.374648	0.070738
	O7379	O	0.864807	0.041164	0.113129
	O7380	O	0.802345	0.041269	0.074560
	O7381	O	0.760094	0.041290	0.113175
	O7382	O	0.802338	0.209331	0.074399
	O7383	O	0.802383	0.290778	0.050596
	O7384	O	0.760058	0.290909	0.011962
	O7385	O	0.822541	0.209111	0.074477
	O7386	O	0.822582	0.290859	0.050609
	O7387	O	0.864810	0.290502	0.011931
	O7388	O	0.760026	0.209632	0.113087
	O7389	O	0.802338	0.458970	0.050647
	O7390	O	0.760022	0.459068	0.011945
	O7391	O	0.864840	0.458980	0.011907
	O7392	O	0.822625	0.459074	0.050654
	O7393	O	0.864817	0.209423	0.113169
	O7394	O	0.749961	0.375136	0.116851
	O7395	O	0.874991	0.125008	0.008235
	C7396	C	0.847937	0.213833	0.097548
	C7397	C	0.852238	0.124962	0.101516
	C7398	C	0.847872	0.036055	0.097679
	C7399	C	0.839457	0.036209	0.089979
	C7400	C	0.835173	0.125018	0.085986
	C7401	C	0.839539	0.213964	0.089840
	C7402	C	0.826128	0.124945	0.077627
	C7403	C	0.861241	0.125324	0.109939
	C7404	C	0.798756	0.125543	0.077611
	C7405	C	0.789710	0.125795	0.086012
	C7406	C	0.785370	0.214864	0.089879
	C7407	C	0.776951	0.214580	0.097561
	C7408	C	0.772648	0.125430	0.101524
	C7409	C	0.777004	0.036327	0.097692
	C7410	C	0.785417	0.036579	0.090000
	C7411	C	0.763635	0.125478	0.109935
	C7412	C	0.798784	0.374940	0.047401
	C7413	C	0.789760	0.374908	0.039047
	C7414	C	0.785448	0.464105	0.035100
	C7415	C	0.777035	0.464133	0.027394
	C7416	C	0.772717	0.375185	0.023446
	C7417	C	0.776980	0.286001	0.027461
	C7418	C	0.785400	0.285981	0.035165
	C7419	C	0.763654	0.375090	0.015104
	C7420	C	0.826158	0.374964	0.047457
	C7421	C	0.835218	0.375163	0.039038
	C7422	C	0.839514	0.285987	0.035069
	C7423	C	0.847924	0.285606	0.027376
	C7424	C	0.852234	0.374865	0.023476
	C7425	C	0.847959	0.464045	0.027444
	C7426	C	0.839539	0.464316	0.035154
	C7427	C	0.861275	0.374714	0.015117
	H7428	H	0.851168	0.216326	0.024384
	H7429	H	0.836268	0.216627	0.038139
	H7430	H	0.851190	0.282647	0.100553
	H7431	H	0.836303	0.282833	0.086767
	H7432	H	0.812411	0.124883	0.045312
	H7433	H	0.812227	0.374708	0.079746
	H7434	H	0.750200	0.375291	0.107817
	H7435	H	0.874869	0.125331	0.017214
	H7436	H	0.788650	0.216822	0.038202
	H7437	H	0.773706	0.216820	0.024507
	H7438	H	0.773694	0.283752	0.100577
	H7439	H	0.788594	0.284051	0.086798
	H7440	H	0.773789	0.533153	0.024354
	H7441	H	0.788706	0.533122	0.038091
	H7442	H	0.788677	-0.032714	0.086994
	H7443	H	0.773809	-0.032895	0.100724
	H7444	H	0.836169	-0.032844	0.087017
	H7445	H	0.851097	-0.032975	0.100765
	H7446	H	0.836322	0.533264	0.038215
	H7447	H	0.851255	0.532967	0.024482
	Al7448	Al	0.812429	-0.500194	0.187574
	Al7449	Al	0.812425	-0.249952	0.187601
	Al7450	Al	0.749986	-0.249978	0.125019
	Al7451	Al	0.749979	-0.500019	0.125058
	O7452	O	0.822521	-0.459356	0.199550
	O7453	O	0.812323	-0.375130	0.179383
	O7454	O	0.812549	-0.124875	0.195792
	O7455	O	0.864866	-0.459297	0.238042
	O7456	O	0.802328	-0.459015	0.199524
	O7457	O	0.760045	-0.459101	0.238190
	O7458	O	0.802332	-0.290750	0.199523
	O7459	O	0.802372	-0.208881	0.175636
	O7460	O	0.760138	-0.209018	0.136920
	O7461	O	0.822532	-0.291035	0.199521
	O7462	O	0.822498	-0.209679	0.175518
	O7463	O	0.864867	-0.209581	0.136942
	O7464	O	0.760007	-0.290971	0.238133
	O7465	O	0.802353	-0.040629	0.175612
	O7466	O	0.760016	-0.040837	0.137055
	O7467	O	0.864864	-0.041351	0.136957
	O7468	O	0.822572	-0.041590	0.175583
	O7469	O	0.864938	-0.291104	0.237951
	O7470	O	0.749964	-0.125356	0.241878
	O7471	O	0.874971	-0.374986	0.133203
	C7472	C	0.847935	-0.286034	0.222557
	C7473	C	0.852272	-0.375192	0.226475
	C7474	C	0.847940	-0.464418	0.222588
	C7475	C	0.839495	-0.464318	0.214930
	C7476	C	0.835163	-0.375167	0.211036
	C7477	C	0.839501	-0.285914	0.214924
	C7478	C	0.826105	-0.374984	0.202728
	C7479	C	0.861334	-0.375381	0.234821
	C7480	C	0.798764	-0.374850	0.202739
	C7481	C	0.789702	-0.374779	0.211078
	C7482	C	0.785326	-0.285884	0.214929
	C7483	C	0.776905	-0.286058	0.222585
	C7484	C	0.772648	-0.375050	0.226613
	C7485	C	0.777003	-0.463983	0.222752
	C7486	C	0.785421	-0.463927	0.215067
	C7487	C	0.763600	-0.375151	0.234968
	C7488	C	0.798802	-0.124765	0.172421
	C7489	C	0.789751	-0.125002	0.164041
	C7490	C	0.785407	-0.035866	0.160182
	C7491	C	0.776985	-0.035724	0.152532
	C7492	C	0.772695	-0.124840	0.148561
	C7493	C	0.777022	-0.214122	0.152424
	C7494	C	0.785450	-0.214087	0.160075
	C7495	C	0.763657	-0.124974	0.140193
	C7496	C	0.826112	-0.125754	0.172357
	C7497	C	0.835161	-0.125730	0.163989
	C7498	C	0.839464	-0.214795	0.160065
	C7499	C	0.847908	-0.214633	0.152392
	C7500	C	0.852242	-0.125400	0.148498
	C7501	C	0.847943	-0.036345	0.152456
	C7502	C	0.839507	-0.036540	0.160142
	C7503	C	0.861317	-0.125564	0.140137
	H7504	H	0.851159	-0.283826	0.149350
	H7505	H	0.836214	-0.283996	0.163034
	H7506	H	0.851179	-0.216992	0.225547
	H7507	H	0.836202	-0.216782	0.211976
	H7508	H	0.812277	-0.375105	0.170388
	H7509	H	0.812594	-0.125494	0.204827
	H7510	H	0.750104	-0.125261	0.232901
	H7511	H	0.874873	-0.375105	0.142247
	H7512	H	0.788727	-0.283201	0.163062
	H7513	H	0.773767	-0.283173	0.149402
	H7514	H	0.773612	-0.217283	0.225505
	H7515	H	0.788543	-0.216922	0.211865
	H7516	H	0.773708	0.033325	0.149542
	H7517	H	0.788663	0.033412	0.163216
	H7518	H	0.788706	-0.532858	0.212117
	H7519	H	0.773794	-0.532967	0.225862
	H7520	H	0.836263	-0.533365	0.211924
	H7521	H	0.851234	-0.533318	0.225566
	H7522	H	0.836277	0.032647	0.163187
	H7523	H	0.851209	0.032926	0.149533
	Al7524	Al	0.812467	-0.000270	0.187544
	Al7525	Al	0.812468	0.249912	0.187550
	Al7526	Al	0.749924	0.250169	0.125045
	Al7527	Al	0.749944	0.000063	0.125067
	O7528	O	0.822563	0.041122	0.199549
	O7529	O	0.812448	0.124784	0.179388
	O7530	O	0.812480	0.374907	0.195743
	O7531	O	0.864877	0.040870	0.238102
	O7532	O	0.802392	0.040741	0.199513
	O7533	O	0.760058	0.040800	0.238157
	O7534	O	0.802337	0.209279	0.199501
	O7535	O	0.802369	0.291039	0.175533
	O7536	O	0.760065	0.290882	0.136942
	O7537	O	0.822553	0.209352	0.199507
	O7538	O	0.822535	0.291182	0.175577
	O7539	O	0.864820	0.290869	0.137023
	O7540	O	0.760076	0.209239	0.238118
	O7541	O	0.802345	0.459137	0.175606
	O7542	O	0.760035	0.459141	0.136970
	O7543	O	0.864898	0.459136	0.137041
	O7544	O	0.822546	0.459383	0.175676
	O7545	O	0.864922	0.209150	0.238017
	O7546	O	0.749994	0.374769	0.241913
	O7547	O	0.874944	0.125145	0.133282
	C7548	C	0.847963	0.214510	0.222634
	C7549	C	0.852291	0.125213	0.226511
	C7550	C	0.847947	0.036126	0.222617
	C7551	C	0.839536	0.036170	0.214954
	C7552	C	0.835208	0.125312	0.211047
	C7553	C	0.839537	0.214602	0.214964
	C7554	C	0.826146	0.125298	0.202706
	C7555	C	0.861334	0.125055	0.234864
	C7556	C	0.798823	0.125002	0.202696
	C7557	C	0.789759	0.124529	0.211054
	C7558	C	0.785449	0.213778	0.214935
	C7559	C	0.777008	0.213895	0.222598
	C7560	C	0.772690	0.124710	0.226555
	C7561	C	0.777021	0.035415	0.222692
	C7562	C	0.785454	0.035335	0.215022
	C7563	C	0.763634	0.124971	0.234932
	C7564	C	0.798796	0.375143	0.172358
	C7565	C	0.789749	0.374953	0.163951
	C7566	C	0.785391	0.463905	0.160139
	C7567	C	0.776965	0.463934	0.152479
	C7568	C	0.772676	0.375032	0.148494
	C7569	C	0.777003	0.286110	0.152378
	C7570	C	0.785422	0.285932	0.160068
	C7571	C	0.763617	0.375006	0.140123
	C7572	C	0.826094	0.375321	0.172408
	C7573	C	0.835158	0.375338	0.164059
	C7574	C	0.839480	0.286312	0.160145
	C7575	C	0.847908	0.286468	0.152464
	C7576	C	0.852210	0.375542	0.148556
	C7577	C	0.847903	0.464547	0.152479
	C7578	C	0.839475	0.464351	0.160144
	C7579	C	0.861264	0.374901	0.140187
	H7580	H	0.851151	0.217625	0.149421
	H7581	H	0.836203	0.217024	0.163068
	H7582	H	0.851248	0.283562	0.225697
	H7583	H	0.836273	0.283741	0.212024
	H7584	H	0.812399	0.124718	0.170411
	H7585	H	0.812550	0.374444	0.204747
	H7586	H	0.749993	0.375014	0.232928
	H7587	H	0.875059	0.125523	0.142299
	H7588	H	0.788680	0.217062	0.163078
	H7589	H	0.773715	0.217476	0.149448
	H7590	H	0.773744	0.283222	0.225587
	H7591	H	0.788718	0.283149	0.211970
	H7592	H	0.773711	0.532907	0.149519
	H7593	H	0.788640	0.532551	0.163180
	H7594	H	0.788731	-0.033907	0.212053
	H7595	H	0.773782	-0.033869	0.225733
	H7596	H	0.836259	-0.032751	0.211952
	H7597	H	0.851201	-0.032861	0.225579
	H7598	H	0.836198	0.533469	0.163062
	H7599	H	0.851150	0.533737	0.149478
	Al7600	Al	0.812491	-0.499868	0.312556
	Al7601	Al	0.812514	-0.249813	0.312488
	Al7602	Al	0.749924	-0.250337	0.250124
	Al7603	Al	0.749933	-0.500250	0.250137
	O7604	O	0.822628	-0.458973	0.324407
	O7605	O	0.812456	-0.374752	0.304287
	O7606	O	0.812448	-0.124953	0.320666
	O7607	O	0.864930	-0.458822	0.363011
	O7608	O	0.802404	-0.459235	0.324514
	O7609	O	0.760125	-0.459162	0.363148
	O7610	O	0.802381	-0.290868	0.324375
	O7611	O	0.802400	-0.209231	0.300490
	O7612	O	0.760050	-0.209179	0.262018
	O7613	O	0.822613	-0.290686	0.324415
	O7614	O	0.822588	-0.209139	0.300562
	O7615	O	0.864854	-0.209222	0.261841
	O7616	O	0.760149	-0.290981	0.363157
	O7617	O	0.802394	-0.040838	0.300532
	O7618	O	0.760056	-0.040814	0.262068
	O7619	O	0.864895	-0.041278	0.261928
	O7620	O	0.822575	-0.041127	0.300555
	O7621	O	0.864909	-0.290529	0.362977
	O7622	O	0.749992	-0.125029	0.366796
	O7623	O	0.874992	-0.375082	0.258102
	C7624	C	0.847929	-0.285826	0.347621
	C7625	C	0.852298	-0.374800	0.351456
	C7626	C	0.848022	-0.463836	0.347485
	C7627	C	0.839608	-0.463977	0.339794
	C7628	C	0.835250	-0.374955	0.335940
	C7629	C	0.839525	-0.285976	0.339937
	C7630	C	0.826186	-0.374840	0.327566
	C7631	C	0.861333	-0.374777	0.359855
	C7632	C	0.798830	-0.374987	0.327664
	C7633	C	0.789751	-0.375095	0.335981
	C7634	C	0.785414	-0.286118	0.339861
	C7635	C	0.777001	-0.286016	0.347554
	C7636	C	0.772742	-0.374963	0.351542
	C7637	C	0.777033	-0.463858	0.347577
	C7638	C	0.785439	-0.464032	0.339878
	C7639	C	0.763679	-0.375097	0.359922
	C7640	C	0.798841	-0.124931	0.297315
	C7641	C	0.789770	-0.124900	0.289002
	C7642	C	0.785418	-0.035830	0.285140
	C7643	C	0.776995	-0.035846	0.277470
	C7644	C	0.772704	-0.125007	0.273561
	C7645	C	0.777063	-0.214116	0.277391
	C7646	C	0.785508	-0.214133	0.285036
	C7647	C	0.763619	-0.125114	0.265243
	C7648	C	0.826157	-0.125197	0.297373
	C7649	C	0.835207	-0.125240	0.289056
	C7650	C	0.839500	-0.214462	0.285106
	C7651	C	0.847925	-0.214450	0.277417
	C7652	C	0.852281	-0.125432	0.273525
	C7653	C	0.847961	-0.036302	0.277470
	C7654	C	0.839544	-0.036258	0.285152
	C7655	C	0.861317	-0.125408	0.265125
	H7656	H	0.851161	-0.283835	0.274390
	H7657	H	0.836247	-0.283654	0.288091
	H7658	H	0.851137	-0.216992	0.350752
	H7659	H	0.836199	-0.217158	0.337030
	H7660	H	0.812552	-0.374765	0.295354
	H7661	H	0.812342	-0.125081	0.329669
	H7662	H	0.749910	-0.125565	0.357763
	H7663	H	0.874979	-0.374906	0.267098
	H7664	H	0.788835	-0.283208	0.287943
	H7665	H	0.773820	-0.283160	0.274379
	H7666	H	0.773715	-0.217015	0.350512
	H7667	H	0.788649	-0.217411	0.336831
	H7668	H	0.773685	0.033196	0.274558
	H7669	H	0.788685	0.033204	0.288082
	H7670	H	0.788662	-0.533197	0.336864
	H7671	H	0.773766	-0.533009	0.350542
	H7672	H	0.836359	-0.532724	0.336739
	H7673	H	0.851279	-0.532710	0.350493
	H7674	H	0.836319	0.032824	0.288166
	H7675	H	0.851216	0.033090	0.274454
	Al7676	Al	0.812491	0.000027	0.312503
	Al7677	Al	0.812470	0.249972	0.312515
	Al7678	Al	0.749982	0.249860	0.250043
	Al7679	Al	0.749993	-0.000189	0.250132
	O7680	O	0.822625	0.040723	0.324422
	O7681	O	0.812485	0.125136	0.304292
	O7682	O	0.812476	0.374873	0.320750
	O7683	O	0.864898	0.040660	0.363114
	O7684	O	0.802393	0.041168	0.324407
	O7685	O	0.760141	0.041007	0.363085
	O7686	O	0.802371	0.209258	0.324454
	O7687	O	0.802403	0.291113	0.300589
	O7688	O	0.760081	0.290769	0.261987
	O7689	O	0.822644	0.208956	0.324390
	O7690	O	0.822577	0.291097	0.300554
	O7691	O	0.864815	0.291071	0.261863
	O7692	O	0.760161	0.209068	0.363115
	O7693	O	0.802387	0.459232	0.300646
	O7694	O	0.760078	0.458981	0.262002
	O7695	O	0.864882	0.459220	0.261913
	O7696	O	0.822590	0.459246	0.300650
	O7697	O	0.864914	0.208991	0.363027
	O7698	O	0.750026	0.375294	0.366783
	O7699	O	0.875026	0.124946	0.258201
	C7700	C	0.847989	0.214194	0.347592
	C7701	C	0.852290	0.124897	0.351526
	C7702	C	0.848013	0.035703	0.347536
	C7703	C	0.839596	0.035989	0.339831
	C7704	C	0.835255	0.125160	0.335977
	C7705	C	0.839569	0.214482	0.339878
	C7706	C	0.826200	0.124852	0.327587
	C7707	C	0.861327	0.124730	0.359922
	C7708	C	0.798819	0.125194	0.327609
	C7709	C	0.789756	0.124991	0.335930
	C7710	C	0.785439	0.214023	0.339885
	C7711	C	0.777038	0.213739	0.347573
	C7712	C	0.772734	0.124672	0.351491
	C7713	C	0.777079	0.035657	0.347617
	C7714	C	0.785489	0.035878	0.339922
	C7715	C	0.763692	0.124933	0.359863
	C7716	C	0.798850	0.375011	0.297366
	C7717	C	0.789766	0.375239	0.289013
	C7718	C	0.785445	0.464253	0.285076
	C7719	C	0.777025	0.464193	0.277409
	C7720	C	0.772730	0.374932	0.273495
	C7721	C	0.777043	0.286022	0.277435
	C7722	C	0.785476	0.285995	0.285093
	C7723	C	0.763641	0.374883	0.265189
	C7724	C	0.826160	0.375294	0.297421
	C7725	C	0.835187	0.375295	0.289040
	C7726	C	0.839530	0.286406	0.285123
	C7727	C	0.847930	0.286165	0.277417
	C7728	C	0.852239	0.375407	0.273471
	C7729	C	0.847920	0.464318	0.277430
	C7730	C	0.839511	0.464372	0.285155
	C7731	C	0.861283	0.375178	0.265089
	H7732	H	0.851174	0.217304	0.274429
	H7733	H	0.836310	0.217387	0.288171
	H7734	H	0.851221	0.283320	0.350599
	H7735	H	0.836323	0.283397	0.336843
	H7736	H	0.812518	0.124966	0.295343
	H7737	H	0.812453	0.374671	0.329766
	H7738	H	0.750079	0.375349	0.357770
	H7739	H	0.875124	0.125094	0.267163
	H7740	H	0.788739	0.216737	0.288098
	H7741	H	0.773806	0.216785	0.274434
	H7742	H	0.773782	0.282700	0.350614
	H7743	H	0.788684	0.283162	0.336895
	H7744	H	0.773774	0.533361	0.274413
	H7745	H	0.788689	0.533513	0.288095
	H7746	H	0.788758	-0.033009	0.336950
	H7747	H	0.773841	-0.033631	0.350704
	H7748	H	0.836370	-0.033007	0.336794
	H7749	H	0.851262	-0.033286	0.350519
	H7750	H	0.836288	0.533341	0.288219
	H7751	H	0.851163	0.533187	0.274411
	Al7752	Al	0.812524	-0.499923	0.437564
	Al7753	Al	0.812506	-0.249823	0.437472
	Al7754	Al	0.750036	-0.250004	0.375019
	Al7755	Al	0.750026	-0.500008	0.375041
	O7756	O	0.822659	-0.459391	0.449391
	O7757	O	0.812487	-0.375037	0.429266
	O7758	O	0.812507	-0.124891	0.445686
	O7759	O	0.864862	-0.459038	0.488097
	O7760	O	0.802377	-0.459289	0.449433
	O7761	O	0.760106	-0.459603	0.488074
	O7762	O	0.802404	-0.291166	0.449420
	O7763	O	0.802399	-0.209254	0.425610
	O7764	O	0.760138	-0.209240	0.386900
	O7765	O	0.822627	-0.291103	0.449415
	O7766	O	0.822625	-0.209029	0.425495
	O7767	O	0.864883	-0.208995	0.386767
	O7768	O	0.760146	-0.291301	0.488163
	O7769	O	0.802418	-0.041004	0.425623
	O7770	O	0.760101	-0.040868	0.386979
	O7771	O	0.864914	-0.040820	0.386904
	O7772	O	0.822628	-0.040823	0.425566
	O7773	O	0.864876	-0.290845	0.488121
	O7774	O	0.750131	-0.124893	0.491812
	O7775	O	0.875078	-0.375376	0.383193
	C7776	C	0.847976	-0.285589	0.472557
	C7777	C	0.852293	-0.374821	0.476464
	C7778	C	0.848007	-0.464055	0.472554
	C7779	C	0.839600	-0.464081	0.464849
	C7780	C	0.835281	-0.374929	0.460942
	C7781	C	0.839565	-0.285697	0.464860
	C7782	C	0.826215	-0.375225	0.452565
	C7783	C	0.861317	-0.374995	0.484903
	C7784	C	0.798808	-0.375127	0.452650
	C7785	C	0.789815	-0.375171	0.461052
	C7786	C	0.785527	-0.286106	0.465067
	C7787	C	0.777106	-0.286381	0.472753
	C7788	C	0.772765	-0.375435	0.476608
	C7789	C	0.777073	-0.464377	0.472603
	C7790	C	0.785484	-0.464288	0.464922
	C7791	C	0.763688	-0.375402	0.484923
	C7792	C	0.798837	-0.125025	0.422417
	C7793	C	0.789794	-0.124928	0.413996
	C7794	C	0.785444	-0.035878	0.410102
	C7795	C	0.777017	-0.035951	0.402422
	C7796	C	0.772764	-0.125162	0.398447
	C7797	C	0.777109	-0.214238	0.402315
	C7798	C	0.785530	-0.214111	0.410022
	C7799	C	0.763700	-0.125031	0.390106
	C7800	C	0.826203	-0.124984	0.422383
	C7801	C	0.835256	-0.125089	0.413985
	C7802	C	0.839546	-0.214182	0.410003
	C7803	C	0.847924	-0.214259	0.402276
	C7804	C	0.852282	-0.125208	0.398418
	C7805	C	0.848013	-0.036287	0.402449
	C7806	C	0.839634	-0.036087	0.410174
	C7807	C	0.861313	-0.125212	0.390039
	H7808	H	0.851150	-0.283090	0.399211
	H7809	H	0.836263	-0.282896	0.413038
	H7810	H	0.851211	-0.216560	0.475606
	H7811	H	0.836317	-0.216551	0.461860
	H7812	H	0.812451	-0.374813	0.420268
	H7813	H	0.812488	-0.124834	0.454697
	H7814	H	0.750281	-0.124878	0.482883
	H7815	H	0.875295	-0.375538	0.392188
	H7816	H	0.788780	-0.283050	0.413034
	H7817	H	0.773875	-0.283406	0.399325
	H7818	H	0.773819	-0.217542	0.475783
	H7819	H	0.788782	-0.217096	0.462093
	H7820	H	0.773702	0.033226	0.399475
	H7821	H	0.788663	0.033311	0.413162
	H7822	H	0.788705	-0.533069	0.461823
	H7823	H	0.773806	-0.533410	0.475526
	H7824	H	0.836347	-0.533438	0.461834
	H7825	H	0.851245	-0.533083	0.475554
	H7826	H	0.836398	0.032651	0.413283
	H7827	H	0.851317	0.032670	0.399532
	Al7828	Al	0.812540	-0.000008	0.437543
	Al7829	Al	0.812559	0.250240	0.437502
	Al7830	Al	0.750014	0.249952	0.375001
	Al7831	Al	0.750032	0.000077	0.375024
	O7832	O	0.822620	0.040992	0.449491
	O7833	O	0.812531	0.125147	0.429284
	O7834	O	0.812553	0.374935	0.445719
	O7835	O	0.864879	0.040835	0.488196
	O7836	O	0.802374	0.040827	0.449370
	O7837	O	0.760143	0.041029	0.488080
	O7838	O	0.802463	0.209107	0.449424
	O7839	O	0.802421	0.290666	0.425577
	O7840	O	0.760149	0.290763	0.386911
	O7841	O	0.822685	0.209108	0.449369
	O7842	O	0.822669	0.291163	0.425623
	O7843	O	0.864849	0.291116	0.386801
	O7844	O	0.760163	0.209046	0.488165
	O7845	O	0.802396	0.458959	0.425641
	O7846	O	0.760185	0.458784	0.386837
	O7847	O	0.864909	0.459392	0.386870
	O7848	O	0.822670	0.459354	0.425660
	O7849	O	0.864911	0.208987	0.488112
	O7850	O	0.750070	0.374909	0.491820
	O7851	O	0.875021	0.125121	0.383197
	C7852	C	0.848040	0.214328	0.472551
	C7853	C	0.852306	0.125103	0.476553
	C7854	C	0.847968	0.036184	0.472625
	C7855	C	0.839571	0.036218	0.464897
	C7856	C	0.835282	0.125332	0.460941
	C7857	C	0.839634	0.214354	0.464828
	C7858	C	0.826224	0.124997	0.452616
	C7859	C	0.861340	0.125009	0.484969
	C7860	C	0.798860	0.124956	0.452620
	C7861	C	0.789839	0.125066	0.460995
	C7862	C	0.785553	0.214203	0.465008
	C7863	C	0.777133	0.214219	0.472712
	C7864	C	0.772794	0.125168	0.476604
	C7865	C	0.777074	0.036192	0.472588
	C7866	C	0.785497	0.036040	0.464879
	C7867	C	0.763740	0.124962	0.484927
	C7868	C	0.798852	0.374750	0.422395
	C7869	C	0.789807	0.374762	0.414040
	C7870	C	0.785502	0.463782	0.410126
	C7871	C	0.777102	0.463595	0.402389
	C7872	C	0.772798	0.374690	0.398421
	C7873	C	0.777098	0.285660	0.402340
	C7874	C	0.785495	0.285695	0.410083
	C7875	C	0.763752	0.374857	0.390049
	C7876	C	0.826251	0.375162	0.422455
	C7877	C	0.835245	0.375370	0.414016
	C7878	C	0.839514	0.286091	0.409990
	C7879	C	0.847921	0.286132	0.402273
	C7880	C	0.852284	0.375260	0.398425
	C7881	C	0.848025	0.464448	0.402475
	C7882	C	0.839620	0.464505	0.410190
	C7883	C	0.861327	0.375432	0.390015
	H7884	H	0.851132	0.216904	0.399176
	H7885	H	0.836244	0.217007	0.412959
	H7886	H	0.851338	0.283050	0.475560
	H7887	H	0.836397	0.283265	0.461759
	H7888	H	0.812434	0.125707	0.420364
	H7889	H	0.812495	0.374797	0.454717
	H7890	H	0.750175	0.374454	0.482802
	H7891	H	0.874918	0.124896	0.392176
	H7892	H	0.788721	0.216873	0.413114
	H7893	H	0.773849	0.216681	0.399315
	H7894	H	0.773898	0.283473	0.475702
	H7895	H	0.788828	0.282899	0.462024
	H7896	H	0.773870	0.532773	0.399381
	H7897	H	0.788743	0.532873	0.413127
	H7898	H	0.788712	-0.033005	0.461828
	H7899	H	0.773790	-0.032729	0.475561
	H7900	H	0.836303	-0.032738	0.461933
	H7901	H	0.851174	-0.032990	0.475728
	H7902	H	0.836458	0.533476	0.413335
	H7903	H	0.851349	0.533401	0.399541
	Al7904	Al	0.812535	-0.499863	0.562614
	Al7905	Al	0.812571	-0.249746	0.562597
	Al7906	Al	0.750070	-0.250009	0.500010
	Al7907	Al	0.750028	-0.500214	0.500029
	O7908	O	0.822649	-0.459275	0.574534
	O7909	O	0.812553	-0.374887	0.554406
	O7910	O	0.812552	-0.124807	0.570821
	O7911	O	0.864960	-0.459314	0.613214
	O7912	O	0.802463	-0.458833	0.574528
	O7913	O	0.760145	-0.459232	0.613165
	O7914	O	0.802448	-0.290795	0.574509
	O7915	O	0.802456	-0.209072	0.550662
	O7916	O	0.760182	-0.209606	0.511978
	O7917	O	0.822638	-0.290943	0.574575
	O7918	O	0.822671	-0.208845	0.550692
	O7919	O	0.864920	-0.209298	0.511955
	O7920	O	0.760123	-0.291178	0.613082
	O7921	O	0.802430	-0.040775	0.550730
	O7922	O	0.760170	-0.041307	0.512000
	O7923	O	0.864912	-0.041016	0.511899
	O7924	O	0.822685	-0.040621	0.550722
	O7925	O	0.864890	-0.291123	0.613230
	O7926	O	0.750003	-0.124944	0.616794
	O7927	O	0.875001	-0.375071	0.508213
	C7928	C	0.847956	-0.286644	0.597797
	C7929	C	0.852320	-0.375576	0.601627
	C7930	C	0.848058	-0.464307	0.597614
	C7931	C	0.839638	-0.464349	0.589913
	C7932	C	0.835264	-0.375453	0.586103
	C7933	C	0.839538	-0.286688	0.590101
	C7934	C	0.826208	-0.375242	0.577744
	C7935	C	0.861346	-0.375428	0.610015
	C7936	C	0.798875	-0.374767	0.577683
	C7937	C	0.789827	-0.375002	0.586065
	C7938	C	0.785472	-0.286072	0.589926
	C7939	C	0.777052	-0.286191	0.597618
	C7940	C	0.772755	-0.375123	0.601560
	C7941	C	0.777110	-0.463969	0.597699
	C7942	C	0.785523	-0.463926	0.589999
	C7943	C	0.763701	-0.375131	0.609917
	C7944	C	0.798886	-0.124826	0.547512
	C7945	C	0.789852	-0.124975	0.539098
	C7946	C	0.785503	-0.035746	0.535212
	C7947	C	0.777084	-0.035887	0.527508
	C7948	C	0.772806	-0.125213	0.523554
	C7949	C	0.777140	-0.214495	0.527471
	C7950	C	0.785546	-0.214242	0.535180
	C7951	C	0.763772	-0.125309	0.515142
	C7952	C	0.826259	-0.124621	0.547488
	C7953	C	0.835264	-0.124733	0.539052
	C7954	C	0.839586	-0.213882	0.535130
	C7955	C	0.847998	-0.213830	0.527445
	C7956	C	0.852300	-0.124913	0.523494
	C7957	C	0.847980	-0.035782	0.527376
	C7958	C	0.839568	-0.035723	0.535081
	C7959	C	0.861353	-0.125052	0.515129
	H7960	H	0.851262	-0.283110	0.524430
	H7961	H	0.836373	-0.283202	0.538190
	H7962	H	0.851133	-0.217865	0.600884
	H7963	H	0.836220	-0.217768	0.587181
	H7964	H	0.812479	-0.375068	0.545456
	H7965	H	0.812523	-0.124794	0.579791
	H7966	H	0.750058	-0.124803	0.607783
	H7967	H	0.874928	-0.375945	0.517247
	H7968	H	0.788798	-0.283205	0.538197
	H7969	H	0.773964	-0.283495	0.524398
	H7970	H	0.773773	-0.217089	0.600580
	H7971	H	0.788697	-0.217051	0.586878
	H7972	H	0.773837	0.033170	0.524456
	H7973	H	0.788695	0.033699	0.538275
	H7974	H	0.788787	-0.532919	0.587052
	H7975	H	0.773892	-0.533017	0.600758
	H7976	H	0.836417	-0.533397	0.586862
	H7977	H	0.851356	-0.533511	0.600590
	H7978	H	0.836337	0.033238	0.538066
	H7979	H	0.851231	0.033097	0.524304
	Al7980	Al	0.812587	0.000055	0.562620
	Al7981	Al	0.812473	0.250011	0.562565
	Al7982	Al	0.750039	0.250040	0.500011
	Al7983	Al	0.750104	-0.000148	0.500034
	O7984	O	0.822666	0.041375	0.574507
	O7985	O	0.812519	0.124804	0.554383
	O7986	O	0.812533	0.374978	0.570780
	O7987	O	0.864887	0.040886	0.613199
	O7988	O	0.802473	0.040906	0.574633
	O7989	O	0.760127	0.040392	0.613155
	O7990	O	0.802392	0.209145	0.574484
	O7991	O	0.802466	0.291442	0.550566
	O7992	O	0.760130	0.290803	0.511948
	O7993	O	0.822647	0.209497	0.574513
	O7994	O	0.822620	0.290892	0.550630
	O7995	O	0.864906	0.290966	0.511907
	O7996	O	0.760131	0.208764	0.613169
	O7997	O	0.802398	0.459745	0.550697
	O7998	O	0.760181	0.459067	0.511930
	O7999	O	0.864934	0.459097	0.511982
	O8000	O	0.822698	0.459188	0.550708
	O8001	O	0.864930	0.209264	0.613228
	O8002	O	0.750055	0.375068	0.616831
	O8003	O	0.875014	0.125213	0.508252
	C8004	C	0.847929	0.214170	0.597883
	C8005	C	0.852298	0.125205	0.601644
	C8006	C	0.848046	0.036363	0.597595
	C8007	C	0.839643	0.036602	0.589883
	C8008	C	0.835286	0.125551	0.586103
	C8009	C	0.839525	0.214499	0.590163
	C8010	C	0.826234	0.125452	0.577689
	C8011	C	0.861347	0.125274	0.610024
	C8012	C	0.798858	0.125043	0.577731
	C8013	C	0.789828	0.124899	0.586121
	C8014	C	0.785462	0.213832	0.589986
	C8015	C	0.777030	0.213736	0.597666
	C8016	C	0.772741	0.124584	0.601611
	C8017	C	0.777088	0.035553	0.597723
	C8018	C	0.785521	0.035751	0.590036
	C8019	C	0.763702	0.124725	0.609958
	C8020	C	0.798827	0.375458	0.547491
	C8021	C	0.789784	0.375449	0.539121
	C8022	C	0.785435	0.464308	0.535224
	C8023	C	0.777030	0.464163	0.527540
	C8024	C	0.772737	0.374946	0.523588
	C8025	C	0.777094	0.285924	0.527467
	C8026	C	0.785509	0.286132	0.535159
	C8027	C	0.763721	0.374967	0.515129
	C8028	C	0.826220	0.375105	0.547501
	C8029	C	0.835276	0.374905	0.539133
	C8030	C	0.839586	0.285655	0.535176
	C8031	C	0.848000	0.285305	0.527486
	C8032	C	0.852338	0.374566	0.523569
	C8033	C	0.848034	0.463796	0.527519
	C8034	C	0.839619	0.463984	0.535223
	C8035	C	0.861360	0.374990	0.515145
	H8036	H	0.851264	0.216068	0.524465
	H8037	H	0.836298	0.216551	0.538217
	H8038	H	0.851123	0.282921	0.601028
	H8039	H	0.836264	0.283330	0.587277
	H8040	H	0.812531	0.125409	0.545400
	H8041	H	0.812683	0.374570	0.579781
	H8042	H	0.749943	0.375107	0.607832
	H8043	H	0.874984	0.124738	0.517229
	H8044	H	0.788814	0.217134	0.538163
	H8045	H	0.773881	0.216758	0.524390
	H8046	H	0.773735	0.282637	0.600597
	H8047	H	0.788666	0.282947	0.586887
	H8048	H	0.773750	0.533045	0.524552
	H8049	H	0.788640	0.533363	0.538289
	H8050	H	0.788770	-0.032984	0.587007
	H8051	H	0.773839	-0.033246	0.600735
	H8052	H	0.836451	-0.032388	0.586717
	H8053	H	0.851321	-0.032718	0.600501
	H8054	H	0.836383	0.533305	0.538220
	H8055	H	0.851323	0.532969	0.524509
	Al8056	Al	0.812554	-0.499804	0.687560
	Al8057	Al	0.812500	-0.250139	0.687560
	Al8058	Al	0.750046	-0.249817	0.624993
	Al8059	Al	0.750026	-0.500107	0.625052
	O8060	O	0.822661	-0.459456	0.699485
	O8061	O	0.812521	-0.375092	0.679365
	O8062	O	0.812489	-0.125320	0.695856
	O8063	O	0.864879	-0.459242	0.738136
	O8064	O	0.802405	-0.459244	0.699528
	O8065	O	0.760106	-0.459512	0.738212
	O8066	O	0.802385	-0.291032	0.699499
	O8067	O	0.802376	-0.209383	0.675668
	O8068	O	0.760117	-0.208759	0.636919
	O8069	O	0.822651	-0.291146	0.699430
	O8070	O	0.822644	-0.209097	0.675761
	O8071	O	0.864873	-0.208753	0.637049
	O8072	O	0.760107	-0.291285	0.738132
	O8073	O	0.802411	-0.041233	0.675631
	O8074	O	0.760129	-0.040725	0.636910
	O8075	O	0.864848	-0.040552	0.637068
	O8076	O	0.822560	-0.041195	0.675667
	O8077	O	0.864940	-0.291092	0.738076
	O8078	O	0.750041	-0.124702	0.741796
	O8079	O	0.875013	-0.375094	0.633351
	C8080	C	0.848057	-0.285759	0.722546
	C8081	C	0.852300	-0.375053	0.726574
	C8082	C	0.847921	-0.464215	0.722782
	C8083	C	0.839511	-0.464227	0.715108
	C8084	C	0.835270	-0.375038	0.711043
	C8085	C	0.839646	-0.285813	0.714862
	C8086	C	0.826223	-0.375213	0.702670
	C8087	C	0.861348	-0.375087	0.734953
	C8088	C	0.798814	-0.375203	0.702673
	C8089	C	0.789766	-0.375344	0.711037
	C8090	C	0.785425	-0.286406	0.714959
	C8091	C	0.777013	-0.286609	0.722644
	C8092	C	0.772711	-0.375625	0.726586
	C8093	C	0.777059	-0.464564	0.722697
	C8094	C	0.785474	-0.464330	0.715002
	C8095	C	0.763660	-0.375388	0.734948
	C8096	C	0.798852	-0.125436	0.672407
	C8097	C	0.789785	-0.125298	0.664064
	C8098	C	0.785465	-0.036220	0.660183
	C8099	C	0.777058	-0.036020	0.652491
	C8100	C	0.772745	-0.124968	0.648509
	C8101	C	0.777046	-0.214061	0.652452
	C8102	C	0.785467	-0.214390	0.660120
	C8103	C	0.763705	-0.124719	0.640066
	C8104	C	0.826181	-0.124996	0.672487
	C8105	C	0.835201	-0.124720	0.664121
	C8106	C	0.839548	-0.213656	0.660299
	C8107	C	0.847957	-0.213757	0.652624
	C8108	C	0.852235	-0.124785	0.648612
	C8109	C	0.847920	-0.035766	0.652503
	C8110	C	0.839501	-0.035690	0.660183
	C8111	C	0.861289	-0.124614	0.640250
	H8112	H	0.851239	-0.282975	0.649721
	H8113	H	0.836355	-0.282720	0.663383
	H8114	H	0.851346	-0.216904	0.725495
	H8115	H	0.836424	-0.217036	0.711774
	H8116	H	0.812534	-0.375539	0.670367
	H8117	H	0.812501	-0.124975	0.704793
	H8118	H	0.749934	-0.124718	0.732855
	H8119	H	0.874968	-0.374687	0.642349
	H8120	H	0.788743	-0.283442	0.663068
	H8121	H	0.773788	-0.282921	0.649362
	H8122	H	0.773724	-0.217525	0.725625
	H8123	H	0.788652	-0.217496	0.711921
	H8124	H	0.773842	0.033470	0.649454
	H8125	H	0.788756	0.032735	0.663128
	H8126	H	0.788757	-0.533018	0.712011
	H8127	H	0.773819	-0.533712	0.725735
	H8128	H	0.836192	-0.533369	0.712245
	H8129	H	0.851117	-0.533038	0.725964
	H8130	H	0.836245	0.033485	0.663160
	H8131	H	0.851160	0.033161	0.649466
	Al8132	Al	0.812480	-0.000237	0.687587
	Al8133	Al	0.812521	0.249971	0.687525
	Al8134	Al	0.750024	0.250141	0.625016
	Al8135	Al	0.750029	0.000280	0.625003
	O8136	O	0.822614	0.040471	0.699499
	O8137	O	0.812538	0.124832	0.679390
	O8138	O	0.812484	0.374892	0.695708
	O8139	O	0.864914	0.040762	0.738058
	O8140	O	0.802349	0.041038	0.699467
	O8141	O	0.760113	0.041764	0.738147
	O8142	O	0.802430	0.209225	0.699483
	O8143	O	0.802439	0.290867	0.675590
	O8144	O	0.760132	0.291082	0.636982
	O8145	O	0.822636	0.208601	0.699391
	O8146	O	0.822687	0.290544	0.675613
	O8147	O	0.864963	0.290908	0.637016
	O8148	O	0.760093	0.209915	0.738155
	O8149	O	0.802427	0.459213	0.675612
	O8150	O	0.760059	0.459350	0.637092
	O8151	O	0.864986	0.459105	0.637080
	O8152	O	0.822639	0.458922	0.675639
	O8153	O	0.864911	0.209215	0.738033
	O8154	O	0.749989	0.375118	0.741860
	O8155	O	0.875037	0.124883	0.633354
	C8156	C	0.847967	0.214069	0.722623
	C8157	C	0.852259	0.124893	0.726591
	C8158	C	0.847923	0.035779	0.722739
	C8159	C	0.839512	0.035757	0.715022
	C8160	C	0.835216	0.124817	0.711056
	C8161	C	0.839560	0.214070	0.714907
	C8162	C	0.826173	0.124584	0.702660
	C8163	C	0.861311	0.125123	0.734931
	C8164	C	0.798821	0.125316	0.702699
	C8165	C	0.789760	0.125654	0.711064
	C8166	C	0.785429	0.214725	0.714920
	C8167	C	0.777002	0.214927	0.722608
	C8168	C	0.772718	0.125801	0.726577
	C8169	C	0.777015	0.036753	0.722674
	C8170	C	0.785438	0.036753	0.714968
	C8171	C	0.763669	0.125890	0.734982
	C8172	C	0.798871	0.375091	0.672450
	C8173	C	0.789792	0.374986	0.664075
	C8174	C	0.785475	0.464032	0.660199
	C8175	C	0.777055	0.463852	0.652522
	C8176	C	0.772753	0.374953	0.648570
	C8177	C	0.777049	0.285831	0.652470
	C8178	C	0.785479	0.285933	0.660155
	C8179	C	0.763676	0.375160	0.640238
	C8180	C	0.826231	0.374773	0.672448
	C8181	C	0.835287	0.375071	0.664088
	C8182	C	0.839623	0.286134	0.660236
	C8183	C	0.848034	0.286275	0.652533
	C8184	C	0.852325	0.375160	0.648562
	C8185	C	0.847979	0.464051	0.652399
	C8186	C	0.839559	0.463968	0.660075
	C8187	C	0.861387	0.374921	0.640200
	H8188	H	0.851301	0.217348	0.649602
	H8189	H	0.836379	0.217120	0.663294
	H8190	H	0.851244	0.283130	0.725613
	H8191	H	0.836350	0.283394	0.711846
	H8192	H	0.812706	0.124670	0.670437
	H8193	H	0.812469	0.375363	0.704707
	H8194	H	0.750064	0.375681	0.732939
	H8195	H	0.875118	0.125233	0.642349
	H8196	H	0.788722	0.217007	0.663180
	H8197	H	0.773798	0.216705	0.649517
	H8198	H	0.773749	0.284248	0.725619
	H8199	H	0.788658	0.284061	0.711899
	H8200	H	0.773794	0.532978	0.649554
	H8201	H	0.788707	0.533303	0.663206
	H8202	H	0.788670	-0.032592	0.712001
	H8203	H	0.773789	-0.032331	0.725662
	H8204	H	0.836208	-0.033141	0.712095
	H8205	H	0.851126	-0.033294	0.725805
	H8206	H	0.836286	0.532762	0.662998
	H8207	H	0.851181	0.533103	0.649339
	Al8208	Al	0.812493	-0.500204	0.812500
	Al8209	Al	0.812467	-0.249977	0.812548
	Al8210	Al	0.750026	-0.249742	0.750009
	Al8211	Al	0.749974	-0.499952	0.750128
	O8212	O	0.822540	-0.459410	0.824505
	O8213	O	0.812473	-0.375056	0.804332
	O8214	O	0.812492	-0.124861	0.820762
	O8215	O	0.864872	-0.459583	0.863155
	O8216	O	0.802335	-0.459367	0.824371
	O8217	O	0.760120	-0.459827	0.863136
	O8218	O	0.802365	-0.291098	0.824447
	O8219	O	0.802341	-0.208916	0.800681
	O8220	O	0.760114	-0.208786	0.761958
	O8221	O	0.822530	-0.291350	0.824484
	O8222	O	0.822550	-0.209231	0.800592
	O8223	O	0.864902	-0.209433	0.761954
	O8224	O	0.760041	-0.291689	0.863042
	O8225	O	0.802387	-0.040910	0.800617
	O8226	O	0.760122	-0.040522	0.761987
	O8227	O	0.864854	-0.041287	0.761943
	O8228	O	0.822600	-0.041372	0.800645
	O8229	O	0.864842	-0.291415	0.863099
	O8230	O	0.749960	-0.124921	0.866754
	O8231	O	0.875117	-0.374983	0.758216
	C8232	C	0.848006	-0.286335	0.847538
	C8233	C	0.852263	-0.375481	0.851526
	C8234	C	0.847944	-0.464388	0.847603
	C8235	C	0.839520	-0.464186	0.839922
	C8236	C	0.835193	-0.375152	0.836039
	C8237	C	0.839571	-0.286224	0.839864
	C8238	C	0.826114	-0.375097	0.827691
	C8239	C	0.861293	-0.375661	0.859921
	C8240	C	0.798793	-0.375385	0.827622
	C8241	C	0.789762	-0.375355	0.836013
	C8242	C	0.785485	-0.286347	0.840041
	C8243	C	0.777078	-0.286390	0.847734
	C8244	C	0.772716	-0.375414	0.851576
	C8245	C	0.776996	-0.464435	0.847562
	C8246	C	0.785408	-0.464556	0.839855
	C8247	C	0.763639	-0.375617	0.859906
	C8248	C	0.798805	-0.124892	0.797443
	C8249	C	0.789797	-0.125066	0.789013
	C8250	C	0.785490	-0.035998	0.785064
	C8251	C	0.777085	-0.035707	0.777372
	C8252	C	0.772748	-0.124704	0.773490
	C8253	C	0.777040	-0.213927	0.777436
	C8254	C	0.785452	-0.214141	0.785133
	C8255	C	0.763684	-0.124724	0.765148
	C8256	C	0.826140	-0.125190	0.797397
	C8257	C	0.835205	-0.125540	0.789043
	C8258	C	0.839510	-0.214563	0.785082
	C8259	C	0.847936	-0.214698	0.777411
	C8260	C	0.852261	-0.125615	0.773507
	C8261	C	0.847965	-0.036547	0.777457
	C8262	C	0.839547	-0.036526	0.785147
	C8263	C	0.861328	-0.125447	0.765172
	H8264	H	0.851197	-0.283940	0.774401
	H8265	H	0.836243	-0.283534	0.788058
	H8266	H	0.851281	-0.217474	0.850485
	H8267	H	0.836351	-0.216997	0.836821
	H8268	H	0.812477	-0.375176	0.795339
	H8269	H	0.812506	-0.125240	0.829675
	H8270	H	0.749860	-0.125401	0.857784
	H8271	H	0.875295	-0.375279	0.767233
	H8272	H	0.788694	-0.282829	0.788191
	H8273	H	0.773757	-0.283009	0.774493
	H8274	H	0.773848	-0.217348	0.850791
	H8275	H	0.788792	-0.217404	0.837116
	H8276	H	0.773838	0.033297	0.774384
	H8277	H	0.788761	0.032853	0.788027
	H8278	H	0.788635	-0.533366	0.836800
	H8279	H	0.773711	-0.533376	0.850524
	H8280	H	0.836276	-0.533032	0.836922
	H8281	H	0.851174	-0.533350	0.850624
	H8282	H	0.836329	0.032577	0.788206
	H8283	H	0.851261	0.032212	0.774527
	Al8284	Al	0.812494	0.000240	0.812565
	Al8285	Al	0.812484	0.250131	0.812420
	Al8286	Al	0.749964	0.250125	0.750092
	Al8287	Al	0.749994	0.000233	0.750022
	O8288	O	0.822609	0.041107	0.824471
	O8289	O	0.812540	0.125022	0.804267
	O8290	O	0.812456	0.374748	0.820668
	O8291	O	0.864916	0.041289	0.863058
	O8292	O	0.802375	0.040975	0.824400
	O8293	O	0.760063	0.041005	0.863059
	O8294	O	0.802381	0.208936	0.824411
	O8295	O	0.802401	0.290930	0.800531
	O8296	O	0.760063	0.290563	0.762047
	O8297	O	0.822583	0.209150	0.824441
	O8298	O	0.822601	0.290885	0.800547
	O8299	O	0.864956	0.291160	0.761961
	O8300	O	0.760104	0.209377	0.863100
	O8301	O	0.802368	0.458850	0.800567
	O8302	O	0.760018	0.458661	0.762075
	O8303	O	0.864920	0.459165	0.761925
	O8304	O	0.822608	0.458989	0.800558
	O8305	O	0.864901	0.209425	0.863044
	O8306	O	0.749959	0.375184	0.866790
	O8307	O	0.874977	0.124803	0.758182
	C8308	C	0.847931	0.213890	0.847648
	C8309	C	0.852252	0.124931	0.851573
	C8310	C	0.847973	0.035847	0.847566
	C8311	C	0.839553	0.035926	0.839884
	C8312	C	0.835180	0.125010	0.836051
	C8313	C	0.839515	0.213970	0.839956
	C8314	C	0.826161	0.125332	0.827644
	C8315	C	0.861311	0.125336	0.859889
	C8316	C	0.798811	0.124976	0.827600
	C8317	C	0.789774	0.125176	0.836006
	C8318	C	0.785490	0.214251	0.839983
	C8319	C	0.777064	0.214169	0.847684
	C8320	C	0.772722	0.125070	0.851555
	C8321	C	0.777027	0.036068	0.847593
	C8322	C	0.785440	0.036079	0.839883
	C8323	C	0.763664	0.125157	0.859902
	C8324	C	0.798803	0.374961	0.797343
	C8325	C	0.789757	0.374775	0.789002
	C8326	C	0.785460	0.463737	0.785056
	C8327	C	0.777035	0.463469	0.777391
	C8328	C	0.772687	0.374482	0.773537
	C8329	C	0.777013	0.285603	0.777436
	C8330	C	0.785439	0.285836	0.785098
	C8331	C	0.763614	0.374522	0.765229
	C8332	C	0.826179	0.374990	0.797369
	C8333	C	0.835240	0.375201	0.789003
	C8334	C	0.839535	0.286045	0.785027
	C8335	C	0.847974	0.285936	0.777391
	C8336	C	0.852320	0.375038	0.773511
	C8337	C	0.847992	0.464282	0.777415
	C8338	C	0.839555	0.464340	0.785056
	C8339	C	0.861373	0.375137	0.765164
	H8340	H	0.851240	0.216875	0.774363
	H8341	H	0.836260	0.217009	0.787960
	H8342	H	0.851195	0.283185	0.850658
	H8343	H	0.836280	0.282941	0.836888
	H8344	H	0.812517	0.124522	0.795286
	H8345	H	0.812443	0.374377	0.829643
	H8346	H	0.750015	0.375284	0.857837
	H8347	H	0.874972	0.124942	0.767146
	H8348	H	0.788689	0.216825	0.788085
	H8349	H	0.773732	0.216600	0.774462
	H8350	H	0.773832	0.283111	0.850740
	H8351	H	0.788744	0.283357	0.837021
	H8352	H	0.773797	0.532611	0.774367
	H8353	H	0.788729	0.532966	0.788003
	H8354	H	0.788698	-0.033191	0.836861
	H8355	H	0.773783	-0.033340	0.850585
	H8356	H	0.836348	-0.033278	0.836726
	H8357	H	0.851296	-0.033308	0.850488
	H8358	H	0.836303	0.533443	0.788098
	H8359	H	0.851256	0.533102	0.774439
	Al8360	Al	0.812480	-0.500225	0.937531
	Al8361	Al	0.812454	-0.250551	0.937570
	Al8362	Al	0.749971	-0.249914	0.874990
	Al8363	Al	0.749985	-0.500002	0.875051
	O8364	O	0.822521	-0.459339	0.949574
	O8365	O	0.812468	-0.375406	0.929387
	O8366	O	0.812409	-0.125361	0.945791
	O8367	O	0.864821	-0.459371	0.988123
	O8368	O	0.802334	-0.459546	0.949385
	O8369	O	0.760057	-0.459504	0.988076
	O8370	O	0.802295	-0.291201	0.949396
	O8371	O	0.802359	-0.209029	0.925658
	O8372	O	0.760121	-0.209645	0.886900
	O8373	O	0.822588	-0.291092	0.949483
	O8374	O	0.822558	-0.209178	0.925656
	O8375	O	0.864836	-0.209247	0.886925
	O8376	O	0.760061	-0.291324	0.988097
	O8377	O	0.802306	-0.040861	0.925686
	O8378	O	0.760102	-0.041521	0.886892
	O8379	O	0.864818	-0.041149	0.886933
	O8380	O	0.822609	-0.041017	0.925680
	O8381	O	0.864878	-0.291596	0.988057
	O8382	O	0.749984	-0.125150	0.991700
	O8383	O	0.874913	-0.375189	0.883237
	C8384	C	0.847990	-0.286377	0.972471
	C8385	C	0.852276	-0.375439	0.976460
	C8386	C	0.847898	-0.464368	0.972625
	C8387	C	0.839501	-0.464081	0.964932
	C8388	C	0.835207	-0.375153	0.960961
	C8389	C	0.839587	-0.286264	0.964784
	C8390	C	0.826158	-0.375058	0.952663
	C8391	C	0.861266	-0.375426	0.984913
	C8392	C	0.798756	-0.375432	0.952608
	C8393	C	0.789725	-0.375515	0.960998
	C8394	C	0.785396	-0.286284	0.964898
	C8395	C	0.777004	-0.286347	0.972604
	C8396	C	0.772693	-0.375372	0.976555
	C8397	C	0.777029	-0.464690	0.972663
	C8398	C	0.785433	-0.464676	0.964966
	C8399	C	0.763635	-0.375366	0.984912
	C8400	C	0.798773	-0.124882	0.922487
	C8401	C	0.789757	-0.125111	0.914061
	C8402	C	0.785412	-0.036171	0.910139
	C8403	C	0.777031	-0.036151	0.902392
	C8404	C	0.772757	-0.125293	0.898412
	C8405	C	0.777139	-0.214304	0.902262
	C8406	C	0.785519	-0.214213	0.910014
	C8407	C	0.763694	-0.125688	0.890100
	C8408	C	0.826166	-0.125289	0.922484
	C8409	C	0.835187	-0.125366	0.914044
	C8410	C	0.839480	-0.214384	0.910093
	C8411	C	0.847890	-0.214405	0.902400
	C8412	C	0.852236	-0.125450	0.898530
	C8413	C	0.847924	-0.036555	0.902463
	C8414	C	0.839517	-0.036519	0.910138
	C8415	C	0.861250	-0.125278	0.890075
	H8416	H	0.851107	-0.283352	0.899271
	H8417	H	0.836231	-0.283300	0.913137
	H8418	H	0.851303	-0.217510	0.975465
	H8419	H	0.836369	-0.217283	0.961765
	H8420	H	0.812406	-0.375788	0.920457
	H8421	H	0.812216	-0.125368	0.954750
	H8422	H	0.750038	-0.125755	0.982776
	H8423	H	0.874717	-0.375189	0.892175
	H8424	H	0.788783	-0.283207	0.913000
	H8425	H	0.773907	-0.283280	0.899187
	H8426	H	0.773742	-0.217511	0.975674
	H8427	H	0.788650	-0.217203	0.961872
	H8428	H	0.773745	0.033230	0.899467
	H8429	H	0.788615	0.032810	0.913290
	H8430	H	0.788729	-0.533604	0.961996
	H8431	H	0.773792	-0.533621	0.975711
	H8432	H	0.836194	-0.532696	0.961995
	H8433	H	0.851076	-0.533372	0.975723
	H8434	H	0.836310	0.032236	0.913213
	H8435	H	0.851162	0.032521	0.899432
	Al8436	Al	0.812471	0.000022	0.937565
	Al8437	Al	0.812480	0.249712	0.937526
	Al8438	Al	0.749972	0.249940	0.874988
	Al8439	Al	0.749988	-0.000021	0.874996
	O8440	O	0.822563	0.040836	0.949465
	O8441	O	0.812494	0.124858	0.929296
	O8442	O	0.812433	0.374917	0.945716
	O8443	O	0.864831	0.040990	0.988161
	O8444	O	0.802377	0.040732	0.949479
	O8445	O	0.760063	0.040857	0.988081
	O8446	O	0.802327	0.209083	0.949373
	O8447	O	0.802374	0.291093	0.925543
	O8448	O	0.760099	0.290809	0.886923
	O8449	O	0.822551	0.209121	0.949466
	O8450	O	0.822589	0.290938	0.925605
	O8451	O	0.864890	0.290378	0.886912
	O8452	O	0.760079	0.209303	0.988083
	O8453	O	0.802377	0.459260	0.925641
	O8454	O	0.760044	0.459112	0.886987
	O8455	O	0.864859	0.458752	0.886912
	O8456	O	0.822641	0.459277	0.925671
	O8457	O	0.864817	0.209305	0.988169
	O8458	O	0.749904	0.375044	0.991789
	O8459	O	0.875061	0.124809	0.883180
	C8460	C	0.847946	0.213912	0.972593
	C8461	C	0.852248	0.124885	0.976522
	C8462	C	0.848005	0.035754	0.972516
	C8463	C	0.839584	0.035873	0.964805
	C8464	C	0.835219	0.125010	0.960987
	C8465	C	0.839536	0.214028	0.964867
	C8466	C	0.826143	0.124903	0.952611
	C8467	C	0.861267	0.125069	0.984979
	C8468	C	0.798782	0.124911	0.952620
	C8469	C	0.789720	0.125084	0.960956
	C8470	C	0.785410	0.214321	0.964874
	C8471	C	0.776993	0.214460	0.972562
	C8472	C	0.772684	0.125164	0.976515
	C8473	C	0.776981	0.035805	0.972563
	C8474	C	0.785396	0.035760	0.964860
	C8475	C	0.763619	0.125101	0.984885
	C8476	C	0.798819	0.375230	0.922398
	C8477	C	0.789764	0.375046	0.914005
	C8478	C	0.785452	0.464163	0.910070
	C8479	C	0.777031	0.464229	0.902373
	C8480	C	0.772735	0.375090	0.898423
	C8481	C	0.777081	0.286048	0.902317
	C8482	C	0.785496	0.285865	0.910005
	C8483	C	0.763651	0.374970	0.890119
	C8484	C	0.826196	0.375166	0.922465
	C8485	C	0.835201	0.375018	0.914026
	C8486	C	0.839511	0.285506	0.910068
	C8487	C	0.847897	0.285709	0.902336
	C8488	C	0.852259	0.374815	0.898454
	C8489	C	0.847937	0.464304	0.902346
	C8490	C	0.839533	0.464421	0.910079
	C8491	C	0.861269	0.374521	0.890044
	H8492	H	0.851124	0.216548	0.899248
	H8493	H	0.836241	0.216488	0.913043
	H8494	H	0.851198	0.282777	0.975575
	H8495	H	0.836314	0.283200	0.961836
	H8496	H	0.812512	0.124748	0.920383
	H8497	H	0.812454	0.374883	0.954689
	H8498	H	0.749816	0.374837	0.982793
	H8499	H	0.875207	0.124840	0.892195
	H8500	H	0.788760	0.216934	0.912971
	H8501	H	0.773867	0.217073	0.899262
	H8502	H	0.773703	0.283380	0.975516
	H8503	H	0.788686	0.283030	0.961847
	H8504	H	0.773746	0.533249	0.899360
	H8505	H	0.788675	0.533076	0.913125
	H8506	H	0.788632	-0.033320	0.961858
	H8507	H	0.773685	-0.033123	0.975529
	H8508	H	0.836377	-0.033418	0.961734
	H8509	H	0.851280	-0.033356	0.975471
	H8510	H	0.836283	0.533457	0.913112
	H8511	H	0.851177	0.533133	0.899277
	Al8512	Al	0.937461	-0.500047	0.062485
	Al8513	Al	0.937487	-0.250282	0.062495
	Al8514	Al	0.874941	-0.250254	0.000029
	Al8515	Al	0.874989	-0.500092	0.000048
	O8516	O	0.947589	-0.459234	0.074436
	O8517	O	0.937516	-0.375263	0.054243
	O8518	O	0.937493	-0.125122	0.070657
	O8519	O	0.989869	-0.458870	0.113093
	O8520	O	0.927309	-0.459337	0.074314
	O8521	O	0.885051	-0.458934	0.113062
	O8522	O	0.927406	-0.291255	0.074426
	O8523	O	0.927360	-0.209634	0.050613
	O8524	O	0.885043	-0.209385	0.012013
	O8525	O	0.947621	-0.290856	0.074396
	O8526	O	0.947574	-0.209036	0.050553
	O8527	O	0.989866	-0.209221	0.012074
	O8528	O	0.885082	-0.290621	0.113114
	O8529	O	0.927397	-0.041272	0.050499
	O8530	O	0.885046	-0.041134	0.011965
	O8531	O	0.989935	-0.040935	0.012108
	O8532	O	0.947611	-0.040686	0.050610
	O8533	O	0.989882	-0.290982	0.113073
	O8534	O	0.874972	-0.125090	0.116741
	O8535	O	1.000018	-0.375113	0.008305
	C8536	C	0.972966	-0.286050	0.097476
	C8537	C	0.977238	-0.375020	0.101507
	C8538	C	0.972892	-0.463932	0.097688
	C8539	C	0.964484	-0.463876	0.090021
	C8540	C	0.960219	-0.375097	0.085965
	C8541	C	0.964547	-0.286201	0.089822
	C8542	C	0.951166	-0.374879	0.077630
	C8543	C	0.986295	-0.374892	0.109876
	C8544	C	0.923791	-0.375327	0.077592
	C8545	C	0.914757	-0.375096	0.085978
	C8546	C	0.910493	-0.285919	0.090000
	C8547	C	0.902096	-0.286083	0.097718
	C8548	C	0.897714	-0.375155	0.101577
	C8549	C	0.901978	-0.464320	0.097542
	C8550	C	0.910374	-0.464256	0.089820
	C8551	C	0.888652	-0.374832	0.109893
	C8552	C	0.923821	-0.125485	0.047353
	C8553	C	0.914743	-0.125157	0.039043
	C8554	C	0.910460	-0.035705	0.035031
	C8555	C	0.902046	-0.035817	0.027355
	C8556	C	0.897664	-0.125064	0.023540
	C8557	C	0.901914	-0.214357	0.027604
	C8558	C	0.910336	-0.214315	0.035265
	C8559	C	0.888605	-0.125182	0.015169
	C8560	C	0.951153	-0.124805	0.047426
	C8561	C	0.960195	-0.124589	0.039049
	C8562	C	0.964449	-0.213982	0.035063
	C8563	C	0.972885	-0.214094	0.027397
	C8564	C	0.977238	-0.124906	0.023541
	C8565	C	0.972966	-0.035595	0.027538
	C8566	C	0.964556	-0.035304	0.035204
	C8567	C	0.986352	-0.124922	0.015271
	H8568	H	0.976156	-0.283047	0.024353
	H8569	H	0.961163	-0.282933	0.038083
	H8570	H	0.976260	-0.217301	0.100397
	H8571	H	0.961279	-0.217315	0.086777
	H8572	H	0.937589	-0.375239	0.045262
	H8573	H	0.937651	-0.124878	0.079618
	H8574	H	0.874899	-0.124292	0.107768
	H8575	H	1.000094	-0.375017	0.017341
	H8576	H	0.913553	-0.283225	0.038373
	H8577	H	0.898591	-0.283515	0.024690
	H8578	H	0.898876	-0.216686	0.100807
	H8579	H	0.913782	-0.216797	0.087034
	H8580	H	0.898825	0.033108	0.024261
	H8581	H	0.913777	0.033315	0.037958
	H8582	H	0.913572	-0.533465	0.086681
	H8583	H	0.898681	-0.533341	0.100472
	H8584	H	0.961204	-0.532886	0.087086
	H8585	H	0.976130	-0.532519	0.100751
	H8586	H	0.961386	0.033980	0.038330
	H8587	H	0.976272	0.033210	0.024589
	Al8588	Al	0.937417	-0.000199	0.062485
	Al8589	Al	0.937431	0.249731	0.062517
	Al8590	Al	0.874965	0.250122	0.000051
	Al8591	Al	0.874944	-0.000040	0.000033
	O8592	O	0.947477	0.040974	0.074500
	O8593	O	0.937495	0.124934	0.054259
	O8594	O	0.937487	0.374655	0.070732
	O8595	O	0.989870	0.040842	0.112990
	O8596	O	0.927304	0.041040	0.074408
	O8597	O	0.885044	0.041395	0.113171
	O8598	O	0.927338	0.209156	0.074431
	O8599	O	0.927326	0.290916	0.050654
	O8600	O	0.885079	0.291076	0.011997
	O8601	O	0.947542	0.209026	0.074417
	O8602	O	0.947565	0.290793	0.050590
	O8603	O	0.989906	0.290826	0.012027
	O8604	O	0.885079	0.209475	0.113169
	O8605	O	0.927387	0.459126	0.050563
	O8606	O	0.885090	0.459355	0.011975
	O8607	O	0.989888	0.459000	0.012027
	O8608	O	0.947598	0.459105	0.050588
	O8609	O	0.989906	0.209050	0.112949
	O8610	O	0.874952	0.374943	0.116823
	O8611	O	1.000019	0.124956	0.008294
	C8612	C	0.972959	0.214217	0.097417
	C8613	C	0.977235	0.125189	0.101435
	C8614	C	0.972874	0.035985	0.097612
	C8615	C	0.964425	0.035670	0.089966
	C8616	C	0.960140	0.124790	0.085994
	C8617	C	0.964500	0.213946	0.089804
	C8618	C	0.951066	0.124910	0.077665
	C8619	C	0.986324	0.125021	0.109763
	C8620	C	0.923750	0.125215	0.077630
	C8621	C	0.914697	0.125248	0.086022
	C8622	C	0.910415	0.214170	0.090002
	C8623	C	0.902013	0.214248	0.097734
	C8624	C	0.897656	0.125429	0.101569
	C8625	C	0.901948	0.036450	0.097591
	C8626	C	0.910361	0.036253	0.089889
	C8627	C	0.888633	0.125399	0.109961
	C8628	C	0.923786	0.375054	0.047440
	C8629	C	0.914722	0.375496	0.039133
	C8630	C	0.910454	0.464850	0.035156
	C8631	C	0.902042	0.464661	0.027457
	C8632	C	0.897680	0.375310	0.023600
	C8633	C	0.901961	0.286139	0.027560
	C8634	C	0.910364	0.286280	0.035272
	C8635	C	0.888650	0.375344	0.015210
	C8636	C	0.951154	0.374740	0.047408
	C8637	C	0.960201	0.374661	0.039057
	C8638	C	0.964474	0.285629	0.035043
	C8639	C	0.972904	0.285590	0.027362
	C8640	C	0.977259	0.374760	0.023548
	C8641	C	0.972979	0.463871	0.027560
	C8642	C	0.964553	0.463762	0.035248
	C8643	C	0.986321	0.374743	0.015178
	H8644	H	0.976122	0.216587	0.024261
	H8645	H	0.961194	0.216482	0.037909
	H8646	H	0.976207	0.283408	0.100364
	H8647	H	0.961282	0.283181	0.086727
	H8648	H	0.937566	0.125232	0.045257
	H8649	H	0.937477	0.375370	0.079744
	H8650	H	0.874973	0.375337	0.107829
	H8651	H	1.000156	0.125335	0.017300
	H8652	H	0.913620	0.217239	0.038331
	H8653	H	0.898654	0.216948	0.024626
	H8654	H	0.898832	0.283178	0.100828
	H8655	H	0.913695	0.282859	0.087081
	H8656	H	0.898848	0.533792	0.024409
	H8657	H	0.913740	0.533971	0.038094
	H8658	H	0.913569	-0.032613	0.086837
	H8659	H	0.898670	-0.032380	0.100584
	H8660	H	0.961131	-0.033484	0.087041
	H8661	H	0.976087	-0.033226	0.100663
	H8662	H	0.961313	0.532849	0.038309
	H8663	H	0.976255	0.533061	0.024583
	Al8664	Al	0.937487	-0.499966	0.187467
	Al8665	Al	0.937462	-0.249829	0.187456
	Al8666	Al	0.874985	-0.250024	0.125013
	Al8667	Al	0.874955	-0.499917	0.124994
	O8668	O	0.947555	-0.458855	0.199411
	O8669	O	0.937488	-0.375124	0.179212
	O8670	O	0.937499	-0.124737	0.195630
	O8671	O	0.989894	-0.459259	0.237974
	O8672	O	0.927395	-0.459082	0.199341
	O8673	O	0.885121	-0.459146	0.238067
	O8674	O	0.927408	-0.290804	0.199412
	O8675	O	0.927394	-0.209234	0.175501
	O8676	O	0.885017	-0.209355	0.137015
	O8677	O	0.947578	-0.290765	0.199407
	O8678	O	0.947556	-0.209535	0.175497
	O8679	O	0.989856	-0.209315	0.136907
	O8680	O	0.885087	-0.290828	0.237940
	O8681	O	0.927412	-0.041016	0.175493
	O8682	O	0.885037	-0.041202	0.136973
	O8683	O	0.989864	-0.041145	0.136890
	O8684	O	0.947562	-0.041193	0.175508
	O8685	O	0.989891	-0.291056	0.237991
	O8686	O	0.875002	-0.124938	0.241743
	O8687	O	1.000001	-0.374919	0.133205
	C8688	C	0.972964	-0.286222	0.222483
	C8689	C	0.977276	-0.375291	0.226426
	C8690	C	0.972979	-0.464299	0.222462
	C8691	C	0.964548	-0.464144	0.214790
	C8692	C	0.960183	-0.375043	0.210953
	C8693	C	0.964534	-0.286076	0.214837
	C8694	C	0.951140	-0.374994	0.202602
	C8695	C	0.986321	-0.375178	0.234769
	C8696	C	0.923835	-0.374790	0.202579
	C8697	C	0.914795	-0.374831	0.210975
	C8698	C	0.910490	-0.285889	0.214948
	C8699	C	0.902051	-0.286072	0.222599
	C8700	C	0.897733	-0.375087	0.226475
	C8701	C	0.902028	-0.463878	0.222495
	C8702	C	0.910458	-0.463814	0.214826
	C8703	C	0.888673	-0.375102	0.234797
	C8704	C	0.923823	-0.125184	0.172339
	C8705	C	0.914765	-0.125165	0.163972
	C8706	C	0.910516	-0.036006	0.159925
	C8707	C	0.902066	-0.036167	0.152290
	C8708	C	0.897666	-0.125273	0.148546
	C8709	C	0.901946	-0.214376	0.152532
	C8710	C	0.910392	-0.214289	0.160159
	C8711	C	0.888592	-0.125291	0.140209
	C8712	C	0.951127	-0.125156	0.172326
	C8713	C	0.960153	-0.125397	0.163930
	C8714	C	0.964438	-0.214364	0.159952
	C8715	C	0.972849	-0.214347	0.152257
	C8716	C	0.977213	-0.125316	0.148425
	C8717	C	0.972932	-0.036375	0.152415
	C8718	C	0.964512	-0.036276	0.160112
	C8719	C	0.986290	-0.125068	0.140069
	H8720	H	0.976076	-0.283354	0.149205
	H8721	H	0.961158	-0.283424	0.162935
	H8722	H	0.976258	-0.217129	0.225425
	H8723	H	0.961282	-0.216963	0.211831
	H8724	H	0.937518	-0.375179	0.170230
	H8725	H	0.937501	-0.125070	0.204620
	H8726	H	0.875020	-0.124660	0.232706
	H8727	H	1.000004	-0.374709	0.142187
	H8728	H	0.913587	-0.283601	0.163267
	H8729	H	0.898662	-0.283637	0.149668
	H8730	H	0.898799	-0.217303	0.225615
	H8731	H	0.913727	-0.217166	0.211957
	H8732	H	0.898827	0.033113	0.149193
	H8733	H	0.913803	0.032927	0.162842
	H8734	H	0.913650	-0.532732	0.211739
	H8735	H	0.898736	-0.532718	0.225417
	H8736	H	0.961297	-0.533291	0.211746
	H8737	H	0.976283	-0.533403	0.225412
	H8738	H	0.961332	0.032830	0.163215
	H8739	H	0.976246	0.032550	0.149513
	Al8740	Al	0.937448	0.000145	0.187457
	Al8741	Al	0.937456	0.250156	0.187403
	Al8742	Al	0.874908	0.250095	0.125083
	Al8743	Al	0.874950	0.000206	0.125025
	O8744	O	0.947535	0.041150	0.199431
	O8745	O	0.937471	0.124893	0.179268
	O8746	O	0.937481	0.375124	0.195650
	O8747	O	0.989833	0.041029	0.237990
	O8748	O	0.927361	0.041315	0.199367
	O8749	O	0.885093	0.041067	0.238095
	O8750	O	0.927351	0.209463	0.199341
	O8751	O	0.927383	0.290787	0.175463
	O8752	O	0.885010	0.290631	0.136994
	O8753	O	0.947553	0.209242	0.199376
	O8754	O	0.947548	0.290921	0.175466
	O8755	O	0.989918	0.290655	0.136939
	O8756	O	0.885065	0.209239	0.238005
	O8757	O	0.927411	0.459060	0.175451
	O8758	O	0.885053	0.458949	0.136936
	O8759	O	0.989889	0.458864	0.136887
	O8760	O	0.947609	0.459305	0.175594
	O8761	O	0.989904	0.209061	0.237956
	O8762	O	0.874953	0.375276	0.241800
	O8763	O	0.999981	0.125039	0.133074
	C8764	C	0.972954	0.214259	0.222448
	C8765	C	0.977280	0.125294	0.226320
	C8766	C	0.972927	0.036378	0.222448
	C8767	C	0.964499	0.036237	0.214767
	C8768	C	0.960198	0.125191	0.210863
	C8769	C	0.964518	0.214195	0.214790
	C8770	C	0.951138	0.125173	0.202553
	C8771	C	0.986305	0.125283	0.234725
	C8772	C	0.923799	0.125507	0.202570
	C8773	C	0.914731	0.125272	0.210913
	C8774	C	0.910429	0.214224	0.214885
	C8775	C	0.901995	0.214297	0.222561
	C8776	C	0.897680	0.125210	0.226443
	C8777	C	0.902010	0.036210	0.222545
	C8778	C	0.910430	0.036219	0.214861
	C8779	C	0.888653	0.124901	0.234860
	C8780	C	0.923834	0.374929	0.172294
	C8781	C	0.914775	0.374744	0.163907
	C8782	C	0.910453	0.464041	0.159981
	C8783	C	0.902021	0.464357	0.152330
	C8784	C	0.897668	0.374944	0.148469
	C8785	C	0.901946	0.285572	0.152440
	C8786	C	0.910399	0.285330	0.160074
	C8787	C	0.888601	0.374909	0.140115
	C8788	C	0.951143	0.375067	0.172326
	C8789	C	0.960172	0.375113	0.163924
	C8790	C	0.964500	0.285915	0.160066
	C8791	C	0.972942	0.285733	0.152389
	C8792	C	0.977260	0.374871	0.148442
	C8793	C	0.972923	0.464118	0.152284
	C8794	C	0.964476	0.464167	0.159943
	C8795	C	0.986313	0.374741	0.140071
	H8796	H	0.976170	0.216922	0.149362
	H8797	H	0.961285	0.216752	0.163135
	H8798	H	0.976221	0.283291	0.225478
	H8799	H	0.961271	0.283358	0.211831
	H8800	H	0.937614	0.124632	0.170220
	H8801	H	0.937643	0.374661	0.204636
	H8802	H	0.874989	0.375192	0.232793
	H8803	H	1.000033	0.125310	0.142044
	H8804	H	0.913628	0.216010	0.163165
	H8805	H	0.898630	0.216607	0.149514
	H8806	H	0.898792	0.283408	0.225660
	H8807	H	0.913697	0.283662	0.211905
	H8808	H	0.898801	0.533457	0.149281
	H8809	H	0.913734	0.533185	0.162988
	H8810	H	0.913692	-0.033005	0.211837
	H8811	H	0.898806	-0.032698	0.225626
	H8812	H	0.961216	-0.032453	0.211800
	H8813	H	0.976144	-0.032631	0.225426
	H8814	H	0.961247	0.533191	0.162964
	H8815	H	0.976102	0.533166	0.149181
	Al8816	Al	0.937492	-0.500085	0.312477
	Al8817	Al	0.937463	-0.250035	0.312475
	Al8818	Al	0.874997	-0.250173	0.249900
	Al8819	Al	0.875015	-0.500104	0.250003
	O8820	O	0.947642	-0.459321	0.324328
	O8821	O	0.937584	-0.375035	0.304258
	O8822	O	0.937519	-0.124959	0.320688
	O8823	O	0.989875	-0.459305	0.362984
	O8824	O	0.927394	-0.459399	0.324439
	O8825	O	0.885182	-0.459727	0.363065
	O8826	O	0.927393	-0.291229	0.324373
	O8827	O	0.927378	-0.209203	0.300503
	O8828	O	0.885149	-0.209448	0.261868
	O8829	O	0.947606	-0.291078	0.324319
	O8830	O	0.947565	-0.209077	0.300519
	O8831	O	0.989866	-0.209280	0.261850
	O8832	O	0.885135	-0.291411	0.363079
	O8833	O	0.927415	-0.041010	0.300525
	O8834	O	0.885096	-0.041390	0.261941
	O8835	O	0.989894	-0.041131	0.261841
	O8836	O	0.947613	-0.040749	0.300567
	O8837	O	0.989878	-0.291245	0.363059
	O8838	O	0.875031	-0.125038	0.366779
	O8839	O	0.999949	-0.374801	0.258109
	C8840	C	0.972914	-0.286024	0.347617
	C8841	C	0.977262	-0.375037	0.351462
	C8842	C	0.973004	-0.464200	0.347464
	C8843	C	0.964596	-0.464085	0.339745
	C8844	C	0.960222	-0.375132	0.335930
	C8845	C	0.964496	-0.285957	0.339913
	C8846	C	0.951187	-0.374956	0.327518
	C8847	C	0.986309	-0.375207	0.359831
	C8848	C	0.923819	-0.375236	0.327600
	C8849	C	0.914767	-0.375117	0.335963
	C8850	C	0.910438	-0.286061	0.339824
	C8851	C	0.902041	-0.286145	0.347560
	C8852	C	0.897754	-0.375363	0.351515
	C8853	C	0.902044	-0.464377	0.347547
	C8854	C	0.910448	-0.464236	0.339854
	C8855	C	0.888706	-0.375450	0.359882
	C8856	C	0.923838	-0.125117	0.297312
	C8857	C	0.914804	-0.124848	0.288933
	C8858	C	0.910488	-0.035910	0.284981
	C8859	C	0.902043	-0.035938	0.277328
	C8860	C	0.897742	-0.125157	0.273452
	C8861	C	0.902049	-0.214091	0.277404
	C8862	C	0.910491	-0.213999	0.285054
	C8863	C	0.888692	-0.125393	0.265087
	C8864	C	0.951159	-0.124787	0.297361
	C8865	C	0.960217	-0.125087	0.289013
	C8866	C	0.964495	-0.214175	0.285036
	C8867	C	0.972911	-0.214362	0.277319
	C8868	C	0.977254	-0.125391	0.273425
	C8869	C	0.972970	-0.036287	0.277404
	C8870	C	0.964570	-0.036022	0.285129
	C8871	C	0.986298	-0.125097	0.265012
	H8872	H	0.976134	-0.283243	0.274279
	H8873	H	0.961228	-0.282886	0.288015
	H8874	H	0.976181	-0.216958	0.350606
	H8875	H	0.961226	-0.216880	0.336948
	H8876	H	0.937701	-0.375018	0.295290
	H8877	H	0.937653	-0.124922	0.329662
	H8878	H	0.874836	-0.125277	0.357805
	H8879	H	0.999820	-0.374969	0.267096
	H8880	H	0.913711	-0.283138	0.288084
	H8881	H	0.898790	-0.283312	0.274418
	H8882	H	0.898755	-0.217406	0.350524
	H8883	H	0.913680	-0.217246	0.336756
	H8884	H	0.898800	0.033211	0.274302
	H8885	H	0.913743	0.033583	0.287959
	H8886	H	0.913696	-0.532895	0.336818
	H8887	H	0.898772	-0.533388	0.350478
	H8888	H	0.961389	-0.533298	0.336646
	H8889	H	0.976299	-0.533390	0.350368
	H8890	H	0.961325	0.033190	0.288103
	H8891	H	0.976217	0.032654	0.274399
	Al8892	Al	0.937471	-0.000112	0.312457
	Al8893	Al	0.937535	0.249771	0.312392
	Al8894	Al	0.874987	0.250114	0.249965
	Al8895	Al	0.874991	-0.000076	0.250007
	O8896	O	0.947592	0.040806	0.324382
	O8897	O	0.937526	0.124729	0.304212
	O8898	O	0.937547	0.374829	0.320645
	O8899	O	0.989921	0.040978	0.363035
	O8900	O	0.927349	0.041073	0.324350
	O8901	O	0.885128	0.040863	0.363031
	O8902	O	0.927380	0.209299	0.324296
	O8903	O	0.927470	0.291283	0.300446
	O8904	O	0.885130	0.291015	0.261877
	O8905	O	0.947667	0.208874	0.324310
	O8906	O	0.947604	0.291068	0.300502
	O8907	O	0.989840	0.290856	0.261814
	O8908	O	0.885114	0.209037	0.363084
	O8909	O	0.927425	0.459444	0.300520
	O8910	O	0.885077	0.459194	0.261924
	O8911	O	0.989851	0.459070	0.261883
	O8912	O	0.947618	0.459280	0.300548
	O8913	O	0.989843	0.209018	0.363131
	O8914	O	0.875012	0.374953	0.366750
	O8915	O	0.999926	0.125123	0.258088
	C8916	C	0.972972	0.214108	0.347543
	C8917	C	0.977289	0.124899	0.351475
	C8918	C	0.973003	0.035778	0.347478
	C8919	C	0.964597	0.035893	0.339780
	C8920	C	0.960241	0.124962	0.335911
	C8921	C	0.964571	0.214017	0.339860
	C8922	C	0.951190	0.124699	0.327562
	C8923	C	0.986308	0.124857	0.359893
	C8924	C	0.923814	0.125331	0.327543
	C8925	C	0.914755	0.125418	0.335889
	C8926	C	0.910457	0.214574	0.339833
	C8927	C	0.902051	0.214274	0.347560
	C8928	C	0.897743	0.125139	0.351480
	C8929	C	0.902020	0.036065	0.347488
	C8930	C	0.910430	0.036216	0.339781
	C8931	C	0.888722	0.124991	0.359882
	C8932	C	0.923871	0.375404	0.297309
	C8933	C	0.914821	0.375415	0.288942
	C8934	C	0.910480	0.464370	0.285041
	C8935	C	0.902066	0.464179	0.277355
	C8936	C	0.897740	0.375340	0.273419
	C8937	C	0.902060	0.286406	0.277349
	C8938	C	0.910488	0.286499	0.285037
	C8939	C	0.888684	0.375183	0.265099
	C8940	C	0.951191	0.375258	0.297358
	C8941	C	0.960246	0.375103	0.288993
	C8942	C	0.964533	0.285932	0.285058
	C8943	C	0.972943	0.285892	0.277356
	C8944	C	0.977265	0.374910	0.273463
	C8945	C	0.972952	0.464096	0.277310
	C8946	C	0.964544	0.464183	0.285029
	C8947	C	0.986279	0.375044	0.265042
	H8948	H	0.976151	0.216827	0.274320
	H8949	H	0.961259	0.216900	0.288048
	H8950	H	0.976213	0.283044	0.350565
	H8951	H	0.961279	0.283003	0.336838
	H8952	H	0.937385	0.124619	0.295184
	H8953	H	0.937656	0.374519	0.329638
	H8954	H	0.875154	0.374829	0.357753
	H8955	H	0.999980	0.124733	0.267095
	H8956	H	0.913746	0.217736	0.288093
	H8957	H	0.898814	0.217533	0.274364
	H8958	H	0.898845	0.283624	0.350634
	H8959	H	0.913728	0.283858	0.336846
	H8960	H	0.898795	0.533076	0.274356
	H8961	H	0.913716	0.533344	0.288052
	H8962	H	0.913655	-0.032936	0.336735
	H8963	H	0.898765	-0.033046	0.350520
	H8964	H	0.961372	-0.033077	0.336760
	H8965	H	0.976310	-0.033255	0.350481
	H8966	H	0.961275	0.533224	0.288010
	H8967	H	0.976169	0.532995	0.274210
	Al8968	Al	0.937487	-0.500150	0.437480
	Al8969	Al	0.937524	-0.250234	0.437535
	Al8970	Al	0.875031	-0.250362	0.374942
	Al8971	Al	0.875013	-0.500141	0.374945
	O8972	O	0.947607	-0.459439	0.449401
	O8973	O	0.937549	-0.375032	0.429289
	O8974	O	0.937560	-0.125015	0.445675
	O8975	O	0.989853	-0.459369	0.488177
	O8976	O	0.927407	-0.459051	0.449439
	O8977	O	0.885140	-0.458953	0.488098
	O8978	O	0.927399	-0.290691	0.449384
	O8979	O	0.927379	-0.209121	0.425643
	O8980	O	0.885190	-0.209073	0.386863
	O8981	O	0.947633	-0.291281	0.449398
	O8982	O	0.947643	-0.209281	0.425565
	O8983	O	0.989856	-0.209225	0.386840
	O8984	O	0.885096	-0.291025	0.488084
	O8985	O	0.927419	-0.040958	0.425625
	O8986	O	0.885170	-0.041100	0.386950
	O8987	O	0.989848	-0.041265	0.386816
	O8988	O	0.947639	-0.041011	0.425546
	O8989	O	0.989881	-0.291092	0.488022
	O8990	O	0.875069	-0.125197	0.491813
	O8991	O	1.000040	-0.375114	0.383194
	C8992	C	0.972953	-0.286398	0.472586
	C8993	C	0.977246	-0.375480	0.476529
	C8994	C	0.972945	-0.464576	0.472606
	C8995	C	0.964530	-0.464592	0.464886
	C8996	C	0.960215	-0.375402	0.460995
	C8997	C	0.964537	-0.286272	0.464883
	C8998	C	0.951187	-0.375456	0.452580
	C8999	C	0.986271	-0.375279	0.484936
	C9000	C	0.923812	-0.374888	0.452600
	C9001	C	0.914754	-0.374943	0.460920
	C9002	C	0.910439	-0.285733	0.464869
	C9003	C	0.902023	-0.285625	0.472580
	C9004	C	0.897723	-0.374808	0.476496
	C9005	C	0.902041	-0.464029	0.472567
	C9006	C	0.910456	-0.464135	0.464853
	C9007	C	0.888694	-0.374836	0.484911
	C9008	C	0.923835	-0.124923	0.422413
	C9009	C	0.914807	-0.124764	0.414043
	C9010	C	0.910521	-0.035842	0.410042
	C9011	C	0.902144	-0.035639	0.402318
	C9012	C	0.897806	-0.124770	0.398434
	C9013	C	0.902082	-0.213640	0.402435
	C9014	C	0.910460	-0.213705	0.410161
	C9015	C	0.888752	-0.124976	0.390091
	C9016	C	0.951214	-0.125286	0.422360
	C9017	C	0.960242	-0.125606	0.414011
	C9018	C	0.964524	-0.214582	0.410059
	C9019	C	0.972926	-0.214289	0.402330
	C9020	C	0.977246	-0.125387	0.398405
	C9021	C	0.972969	-0.036526	0.402396
	C9022	C	0.964569	-0.036699	0.410114
	C9023	C	0.986295	-0.125240	0.390024
	H9024	H	0.976176	-0.283436	0.399254
	H9025	H	0.961273	-0.283605	0.413037
	H9026	H	0.976203	-0.217026	0.475572
	H9027	H	0.961325	-0.217267	0.461815
	H9028	H	0.937577	-0.374632	0.420334
	H9029	H	0.937477	-0.124547	0.454646
	H9030	H	0.875072	-0.125224	0.482857
	H9031	H	1.000129	-0.374667	0.392190
	H9032	H	0.913683	-0.282722	0.413223
	H9033	H	0.898795	-0.282580	0.399419
	H9034	H	0.898803	-0.216433	0.475657
	H9035	H	0.913692	-0.216571	0.461893
	H9036	H	0.898913	0.033241	0.399254
	H9037	H	0.913818	0.033004	0.413029
	H9038	H	0.913721	-0.533367	0.461867
	H9039	H	0.898834	-0.533394	0.475647
	H9040	H	0.961310	-0.533774	0.461833
	H9041	H	0.976194	-0.533792	0.475624
	H9042	H	0.961330	0.032290	0.413174
	H9043	H	0.976214	0.032528	0.399432
	Al9044	Al	0.937539	-0.000163	0.437450
	Al9045	Al	0.937553	0.249623	0.437442
	Al9046	Al	0.874976	0.249780	0.374929
	Al9047	Al	0.875055	-0.000172	0.374997
	O9048	O	0.947642	0.041276	0.449388
	O9049	O	0.937529	0.124758	0.429248
	O9050	O	0.937504	0.374521	0.445682
	O9051	O	0.989854	0.041119	0.488158
	O9052	O	0.927398	0.040808	0.449387
	O9053	O	0.885174	0.040990	0.488160
	O9054	O	0.927453	0.209145	0.449453
	O9055	O	0.927356	0.291124	0.425639
	O9056	O	0.885118	0.291167	0.386858
	O9057	O	0.947669	0.209512	0.449347
	O9058	O	0.947575	0.291120	0.425529
	O9059	O	0.989904	0.291396	0.386945
	O9060	O	0.885176	0.209296	0.488149
	O9061	O	0.927382	0.459326	0.425546
	O9062	O	0.885135	0.459361	0.386822
	O9063	O	0.989867	0.459433	0.386935
	O9064	O	0.947645	0.459200	0.425557
	O9065	O	0.989820	0.209364	0.488181
	O9066	O	0.874968	0.374992	0.491805
	O9067	O	0.999945	0.125104	0.383244
	C9068	C	0.972982	0.214752	0.472594
	C9069	C	0.977289	0.125531	0.476513
	C9070	C	0.972940	0.036444	0.472639
	C9071	C	0.964543	0.036299	0.464913
	C9072	C	0.960259	0.125430	0.460934
	C9073	C	0.964586	0.214615	0.464850
	C9074	C	0.951243	0.125304	0.452537
	C9075	C	0.986273	0.125291	0.484968
	C9076	C	0.923856	0.125048	0.452592
	C9077	C	0.914805	0.125393	0.460971
	C9078	C	0.910490	0.214619	0.464912
	C9079	C	0.902079	0.214559	0.472615
	C9080	C	0.897757	0.125227	0.476515
	C9081	C	0.902068	0.036030	0.472575
	C9082	C	0.910483	0.036106	0.464873
	C9083	C	0.888732	0.125103	0.484954
	C9084	C	0.923808	0.375181	0.422404
	C9085	C	0.914771	0.375383	0.413993
	C9086	C	0.910485	0.464530	0.410019
	C9087	C	0.902076	0.464278	0.402296
	C9088	C	0.897744	0.375269	0.398388
	C9089	C	0.902031	0.286227	0.402351
	C9090	C	0.910427	0.286404	0.410088
	C9091	C	0.888707	0.375042	0.390037
	C9092	C	0.951158	0.375161	0.422312
	C9093	C	0.960213	0.375204	0.413967
	C9094	C	0.964574	0.286456	0.410085
	C9095	C	0.972995	0.286571	0.402420
	C9096	C	0.977262	0.375513	0.398476
	C9097	C	0.972920	0.464364	0.402357
	C9098	C	0.964498	0.464214	0.410041
	C9099	C	0.986292	0.375514	0.390133
	H9100	H	0.976256	0.217552	0.399438
	H9101	H	0.961331	0.217421	0.413106
	H9102	H	0.976236	0.284020	0.475604
	H9103	H	0.961342	0.283779	0.461804
	H9104	H	0.937571	0.124993	0.420286
	H9105	H	0.937514	0.374796	0.454668
	H9106	H	0.874886	0.374870	0.482849
	H9107	H	0.999909	0.125223	0.392210
	H9108	H	0.913634	0.217501	0.413210
	H9109	H	0.898788	0.217247	0.399339
	H9110	H	0.898843	0.283549	0.475687
	H9111	H	0.913727	0.283606	0.461878
	H9112	H	0.898844	0.533266	0.399216
	H9113	H	0.913732	0.533546	0.413007
	H9114	H	0.913702	-0.032770	0.461787
	H9115	H	0.898820	-0.033136	0.475628
	H9116	H	0.961265	-0.032807	0.461986
	H9117	H	0.976137	-0.032734	0.475751
	H9118	H	0.961201	0.532896	0.413026
	H9119	H	0.976157	0.533354	0.399326
	Al9120	Al	0.937490	-0.500216	0.562551
	Al9121	Al	0.937499	-0.249993	0.562553
	Al9122	Al	0.874986	-0.250092	0.500022
	Al9123	Al	0.875011	-0.500138	0.500019
	O9124	O	0.947575	-0.459191	0.574544
	O9125	O	0.937469	-0.375100	0.554374
	O9126	O	0.937501	-0.125119	0.570803
	O9127	O	0.989872	-0.459321	0.613122
	O9128	O	0.927357	-0.459058	0.574472
	O9129	O	0.885156	-0.458975	0.613233
	O9130	O	0.927407	-0.290907	0.574474
	O9131	O	0.927397	-0.209141	0.550650
	O9132	O	0.885143	-0.209300	0.511903
	O9133	O	0.947615	-0.291128	0.574444
	O9134	O	0.947533	-0.209274	0.550577
	O9135	O	0.989906	-0.209195	0.511990
	O9136	O	0.885160	-0.290703	0.613271
	O9137	O	0.927385	-0.040859	0.550603
	O9138	O	0.885087	-0.041061	0.512035
	O9139	O	0.989882	-0.040874	0.512020
	O9140	O	0.947566	-0.041067	0.550626
	O9141	O	0.989905	-0.291182	0.613085
	O9142	O	0.874933	-0.125068	0.617008
	O9143	O	0.999985	-0.374856	0.508231
	C9144	C	0.972997	-0.286072	0.597561
	C9145	C	0.977280	-0.375259	0.601557
	C9146	C	0.972913	-0.464408	0.597704
	C9147	C	0.964500	-0.464230	0.590019
	C9148	C	0.960199	-0.375164	0.586053
	C9149	C	0.964577	-0.286082	0.589880
	C9150	C	0.951182	-0.375085	0.577678
	C9151	C	0.986323	-0.375435	0.609888
	C9152	C	0.923826	-0.374937	0.577672
	C9153	C	0.914773	-0.374650	0.586086
	C9154	C	0.910474	-0.285434	0.590033
	C9155	C	0.902059	-0.285312	0.597734
	C9156	C	0.897756	-0.374601	0.601640
	C9157	C	0.902066	-0.463753	0.597714
	C9158	C	0.910475	-0.463753	0.590012
	C9159	C	0.888730	-0.374689	0.610073
	C9160	C	0.923813	-0.124930	0.547456
	C9161	C	0.914769	-0.124887	0.539080
	C9162	C	0.910483	-0.036026	0.535111
	C9163	C	0.902056	-0.036289	0.527440
	C9164	C	0.897728	-0.125147	0.523564
	C9165	C	0.902056	-0.214055	0.527468
	C9166	C	0.910473	-0.213816	0.535139
	C9167	C	0.888653	-0.125165	0.515210
	C9168	C	0.951134	-0.125185	0.547420
	C9169	C	0.960236	-0.125193	0.539112
	C9170	C	0.964537	-0.214562	0.535134
	C9171	C	0.972979	-0.214579	0.527486
	C9172	C	0.977319	-0.125187	0.523648
	C9173	C	0.972990	-0.035892	0.527559
	C9174	C	0.964555	-0.035741	0.535206
	C9175	C	0.986359	-0.125124	0.515260
	H9176	H	0.976224	-0.283852	0.524431
	H9177	H	0.961248	-0.283741	0.538067
	H9178	H	0.976309	-0.216890	0.600469
	H9179	H	0.961375	-0.217153	0.586791
	H9180	H	0.937282	-0.374718	0.545432
	H9181	H	0.937388	-0.124881	0.579837
	H9182	H	0.874860	-0.124900	0.608054
	H9183	H	0.999979	-0.375368	0.517186
	H9184	H	0.913704	-0.282656	0.538178
	H9185	H	0.898807	-0.283050	0.524504
	H9186	H	0.898835	-0.216171	0.600782
	H9187	H	0.913739	-0.216420	0.587024
	H9188	H	0.898801	0.032728	0.524423
	H9189	H	0.913737	0.032916	0.538106
	H9190	H	0.913717	-0.532668	0.587038
	H9191	H	0.898860	-0.532803	0.600757
	H9192	H	0.961235	-0.533105	0.587033
	H9193	H	0.976185	-0.533397	0.600702
	H9194	H	0.961277	0.033532	0.538177
	H9195	H	0.976272	0.033189	0.524592
	Al9196	Al	0.937505	-0.000061	0.562566
	Al9197	Al	0.937496	0.249958	0.562548
	Al9198	Al	0.875036	0.250147	0.500025
	Al9199	Al	0.875018	-0.000046	0.500034
	O9200	O	0.947628	0.040959	0.574496
	O9201	O	0.937495	0.124777	0.554312
	O9202	O	0.937519	0.374973	0.570755
	O9203	O	0.989869	0.040922	0.613175
	O9204	O	0.927426	0.040963	0.574477
	O9205	O	0.885209	0.040702	0.613285
	O9206	O	0.927392	0.209220	0.574426
	O9207	O	0.927371	0.290947	0.550630
	O9208	O	0.885100	0.291008	0.511969
	O9209	O	0.947658	0.209109	0.574426
	O9210	O	0.947537	0.290988	0.550538
	O9211	O	0.989849	0.290882	0.512015
	O9212	O	0.885117	0.208995	0.613177
	O9213	O	0.927333	0.459102	0.550694
	O9214	O	0.885115	0.459153	0.511918
	O9215	O	0.989901	0.459195	0.512069
	O9216	O	0.947562	0.459157	0.550629
	O9217	O	0.989856	0.209251	0.613167
	O9218	O	0.875080	0.374876	0.616931
	O9219	O	0.999964	0.124965	0.508249
	C9220	C	0.973000	0.214397	0.597601
	C9221	C	0.977272	0.125118	0.601622
	C9222	C	0.972907	0.035933	0.597804
	C9223	C	0.964498	0.035908	0.590102
	C9224	C	0.960238	0.125236	0.586049
	C9225	C	0.964586	0.214454	0.589888
	C9226	C	0.951217	0.125022	0.577652
	C9227	C	0.986306	0.125018	0.609983
	C9228	C	0.923854	0.125156	0.577649
	C9229	C	0.914797	0.125131	0.586017
	C9230	C	0.910446	0.214307	0.589936
	C9231	C	0.902046	0.214000	0.597660
	C9232	C	0.897760	0.124729	0.601605
	C9233	C	0.902095	0.035528	0.597684
	C9234	C	0.910503	0.035919	0.589977
	C9235	C	0.888739	0.124855	0.610057
	C9236	C	0.923783	0.375106	0.547443
	C9237	C	0.914768	0.375328	0.539050
	C9238	C	0.910474	0.464310	0.535108
	C9239	C	0.902073	0.464185	0.527395
	C9240	C	0.897741	0.375219	0.523478
	C9241	C	0.902026	0.286223	0.527440
	C9242	C	0.910441	0.286335	0.535159
	C9243	C	0.888692	0.375048	0.515147
	C9244	C	0.951092	0.375065	0.547361
	C9245	C	0.960184	0.375131	0.539090
	C9246	C	0.964490	0.285964	0.535153
	C9247	C	0.972921	0.286144	0.527519
	C9248	C	0.977264	0.375216	0.523636
	C9249	C	0.972972	0.464369	0.527593
	C9250	C	0.964538	0.464208	0.535214
	C9251	C	0.986321	0.375165	0.515268
	H9252	H	0.976161	0.217276	0.524459
	H9253	H	0.961222	0.217051	0.538131
	H9254	H	0.976276	0.283559	0.600592
	H9255	H	0.961353	0.283517	0.586828
	H9256	H	0.937496	0.124602	0.545286
	H9257	H	0.937542	0.375315	0.579704
	H9258	H	0.875141	0.375329	0.607922
	H9259	H	0.999950	0.124803	0.517196
	H9260	H	0.913671	0.217384	0.538227
	H9261	H	0.898754	0.217198	0.524489
	H9262	H	0.898799	0.283163	0.600754
	H9263	H	0.913678	0.283557	0.586947
	H9264	H	0.898841	0.533282	0.524344
	H9265	H	0.913736	0.533183	0.538077
	H9266	H	0.913791	-0.033177	0.586981
	H9267	H	0.898873	-0.033649	0.600760
	H9268	H	0.961184	-0.033324	0.587185
	H9269	H	0.976109	-0.033436	0.600922
	H9270	H	0.961274	0.533197	0.538237
	H9271	H	0.976234	0.533375	0.524604
	Al9272	Al	0.937533	-0.499936	0.687612
	Al9273	Al	0.937505	-0.249853	0.687560
	Al9274	Al	0.874995	-0.250092	0.625181
	Al9275	Al	0.875061	-0.500092	0.625160
	O9276	O	0.947665	-0.458990	0.699527
	O9277	O	0.937606	-0.374912	0.679377
	O9278	O	0.937572	-0.124835	0.695782
	O9279	O	0.989991	-0.458786	0.738110
	O9280	O	0.927440	-0.458964	0.699507
	O9281	O	0.885099	-0.459066	0.738039
	O9282	O	0.927425	-0.290599	0.699467
	O9283	O	0.927436	-0.209108	0.675599
	O9284	O	0.885107	-0.209039	0.637071
	O9285	O	0.947625	-0.290775	0.699572
	O9286	O	0.947622	-0.208852	0.675621
	O9287	O	0.989872	-0.209138	0.636952
	O9288	O	0.885202	-0.290699	0.738187
	O9289	O	0.927419	-0.041061	0.675712
	O9290	O	0.885063	-0.041023	0.637118
	O9291	O	0.989931	-0.040958	0.637027
	O9292	O	0.947610	-0.040522	0.675574
	O9293	O	0.989933	-0.290569	0.738208
	O9294	O	0.875052	-0.125210	0.741879
	O9295	O	1.000026	-0.375013	0.633238
	C9296	C	0.972960	-0.285751	0.722772
	C9297	C	0.977353	-0.374846	0.726555
	C9298	C	0.973061	-0.464019	0.722586
	C9299	C	0.964626	-0.463935	0.714913
	C9300	C	0.960260	-0.374779	0.711094
	C9301	C	0.964533	-0.285704	0.715102
	C9302	C	0.951219	-0.374786	0.702712
	C9303	C	0.986402	-0.374604	0.734952
	C9304	C	0.923849	-0.374802	0.702633
	C9305	C	0.914789	-0.375131	0.711001
	C9306	C	0.910487	-0.285907	0.714922
	C9307	C	0.902080	-0.285830	0.722637
	C9308	C	0.897752	-0.374905	0.726510
	C9309	C	0.902077	-0.464045	0.722634
	C9310	C	0.910490	-0.464198	0.714919
	C9311	C	0.888740	-0.374945	0.734930
	C9312	C	0.923856	-0.125150	0.672448
	C9313	C	0.914830	-0.124725	0.664052
	C9314	C	0.910437	-0.035666	0.660237
	C9315	C	0.902002	-0.035610	0.652569
	C9316	C	0.897711	-0.124706	0.648601
	C9317	C	0.902082	-0.213818	0.652445
	C9318	C	0.910525	-0.213803	0.660108
	C9319	C	0.888648	-0.125096	0.640285
	C9320	C	0.951178	-0.124787	0.672391
	C9321	C	0.960244	-0.124940	0.664050
	C9322	C	0.964529	-0.214124	0.660116
	C9323	C	0.972962	-0.214186	0.652435
	C9324	C	0.977295	-0.125157	0.648563
	C9325	C	0.972992	-0.036131	0.652484
	C9326	C	0.964563	-0.036034	0.660168
	C9327	C	0.986345	-0.124990	0.640177
	H9328	H	0.976167	-0.283617	0.649374
	H9329	H	0.961268	-0.283070	0.663098
	H9330	H	0.976187	-0.216774	0.725842
	H9331	H	0.961251	-0.216585	0.712186
	H9332	H	0.937762	-0.375202	0.670388
	H9333	H	0.937755	-0.124745	0.704719
	H9334	H	0.875213	-0.125352	0.732860
	H9335	H	0.999921	-0.374951	0.642225
	H9336	H	0.913765	-0.283029	0.663105
	H9337	H	0.898809	-0.282843	0.649456
	H9338	H	0.898882	-0.216597	0.725680
	H9339	H	0.913758	-0.216966	0.711969
	H9340	H	0.898696	0.033611	0.649669
	H9341	H	0.913653	0.033154	0.663355
	H9342	H	0.913738	-0.533268	0.711936
	H9343	H	0.898829	-0.533298	0.725664
	H9344	H	0.961386	-0.532748	0.711852
	H9345	H	0.976350	-0.532915	0.725476
	H9346	H	0.961318	0.033309	0.663156
	H9347	H	0.976243	0.032927	0.649459
	Al9348	Al	0.937499	0.000089	0.687562
	Al9349	Al	0.937531	0.250014	0.687627
	Al9350	Al	0.875070	0.249761	0.625132
	Al9351	Al	0.874995	-0.000045	0.625144
	O9352	O	0.947660	0.040699	0.699460
	O9353	O	0.937520	0.125072	0.679386
	O9354	O	0.937497	0.375091	0.695804
	O9355	O	0.989955	0.040753	0.738161
	O9356	O	0.927416	0.040668	0.699478
	O9357	O	0.885152	0.040200	0.738136
	O9358	O	0.927439	0.208936	0.699570
	O9359	O	0.927406	0.291269	0.675707
	O9360	O	0.885202	0.291000	0.637001
	O9361	O	0.947623	0.209120	0.699557
	O9362	O	0.947624	0.290868	0.675654
	O9363	O	0.989931	0.291185	0.636956
	O9364	O	0.885108	0.208559	0.738102
	O9365	O	0.927439	0.459448	0.675710
	O9366	O	0.885202	0.459212	0.637056
	O9367	O	0.989882	0.459488	0.636930
	O9368	O	0.947630	0.459090	0.675660
	O9369	O	0.989860	0.208981	0.738194
	O9370	O	0.874999	0.375061	0.741763
	O9371	O	0.999991	0.124965	0.633261
	C9372	C	0.972983	0.213586	0.722736
	C9373	C	0.977317	0.124430	0.726594
	C9374	C	0.973003	0.035354	0.722632
	C9375	C	0.964574	0.035522	0.714943
	C9376	C	0.960258	0.124711	0.711060
	C9377	C	0.964559	0.213868	0.715054
	C9378	C	0.951214	0.124865	0.702697
	C9379	C	0.986318	0.124539	0.735006
	C9380	C	0.923834	0.124690	0.702661
	C9381	C	0.914803	0.124990	0.711089
	C9382	C	0.910478	0.214062	0.714971
	C9383	C	0.902055	0.213948	0.722644
	C9384	C	0.897754	0.124843	0.726585
	C9385	C	0.902084	0.035879	0.722689
	C9386	C	0.910489	0.036029	0.715003
	C9387	C	0.888687	0.124462	0.734960
	C9388	C	0.923859	0.375370	0.672533
	C9389	C	0.914821	0.375505	0.664163
	C9390	C	0.910491	0.464653	0.660270
	C9391	C	0.902078	0.464480	0.652580
	C9392	C	0.897797	0.375141	0.648661
	C9393	C	0.902165	0.285973	0.652474
	C9394	C	0.910581	0.286065	0.660154
	C9395	C	0.888770	0.375088	0.640259
	C9396	C	0.951190	0.374762	0.672475
	C9397	C	0.960246	0.374831	0.664077
	C9398	C	0.964546	0.285658	0.660076
	C9399	C	0.972942	0.285768	0.652366
	C9400	C	0.977288	0.375045	0.648489
	C9401	C	0.972957	0.464168	0.652414
	C9402	C	0.964561	0.463993	0.660139
	C9403	C	0.986346	0.375376	0.640168
	H9404	H	0.976190	0.216746	0.649292
	H9405	H	0.961304	0.216565	0.663077
	H9406	H	0.976190	0.282360	0.725840
	H9407	H	0.961250	0.282822	0.712124
	H9408	H	0.937565	0.125060	0.670417
	H9409	H	0.937344	0.374788	0.704803
	H9410	H	0.875039	0.374225	0.732811
	H9411	H	1.000106	0.125350	0.642308
	H9412	H	0.913885	0.217074	0.663083
	H9413	H	0.898982	0.216937	0.649378
	H9414	H	0.898774	0.282745	0.725658
	H9415	H	0.913699	0.282970	0.711875
	H9416	H	0.898845	0.533485	0.649551
	H9417	H	0.913707	0.533834	0.663259
	H9418	H	0.913713	-0.032907	0.711953
	H9419	H	0.898831	-0.033249	0.725721
	H9420	H	0.961303	-0.033558	0.711940
	H9421	H	0.976272	-0.033608	0.725625
	H9422	H	0.961322	0.533096	0.663216
	H9423	H	0.976215	0.533439	0.649412
	Al9424	Al	0.937482	-0.500030	0.812543
	Al9425	Al	0.937491	-0.250344	0.812523
	Al9426	Al	0.875037	-0.249928	0.750039
	Al9427	Al	0.874992	-0.499899	0.749984
	O9428	O	0.947581	-0.459165	0.824526
	O9429	O	0.937482	-0.375037	0.804333
	O9430	O	0.937464	-0.125165	0.820707
	O9431	O	0.989909	-0.458652	0.863118
	O9432	O	0.927341	-0.458607	0.824423
	O9433	O	0.885019	-0.458741	0.863002
	O9434	O	0.927399	-0.290644	0.824511
	O9435	O	0.927406	-0.209266	0.800620
	O9436	O	0.885108	-0.208971	0.762031
	O9437	O	0.947527	-0.290848	0.824548
	O9438	O	0.947611	-0.209323	0.800553
	O9439	O	0.990008	-0.209459	0.762121
	O9440	O	0.885045	-0.290744	0.863084
	O9441	O	0.927502	-0.041110	0.800498
	O9442	O	0.885097	-0.040745	0.761941
	O9443	O	0.989942	-0.041291	0.762035
	O9444	O	0.947664	-0.041190	0.800558
	O9445	O	0.989801	-0.290418	0.863247
	O9446	O	0.874933	-0.125152	0.866777
	O9447	O	1.000043	-0.375364	0.758352
	C9448	C	0.972889	-0.285914	0.847754
	C9449	C	0.977258	-0.374851	0.851548
	C9450	C	0.972982	-0.463942	0.847559
	C9451	C	0.964561	-0.464006	0.839860
	C9452	C	0.960195	-0.374885	0.836066
	C9453	C	0.964461	-0.285909	0.840059
	C9454	C	0.951145	-0.374981	0.827714
	C9455	C	0.986301	-0.374593	0.859950
	C9456	C	0.923836	-0.374471	0.827745
	C9457	C	0.914790	-0.374520	0.836080
	C9458	C	0.910478	-0.285805	0.840021
	C9459	C	0.902053	-0.285779	0.847677
	C9460	C	0.897715	-0.374484	0.851575
	C9461	C	0.902008	-0.463310	0.847566
	C9462	C	0.910433	-0.463396	0.839903
	C9463	C	0.888623	-0.374721	0.859885
	C9464	C	0.923918	-0.125121	0.797329
	C9465	C	0.914829	-0.124718	0.789009
	C9466	C	0.910498	-0.035651	0.785121
	C9467	C	0.902061	-0.035763	0.777453
	C9468	C	0.897735	-0.124715	0.773498
	C9469	C	0.902003	-0.213790	0.777504
	C9470	C	0.910437	-0.213731	0.785176
	C9471	C	0.888682	-0.124792	0.765180
	C9472	C	0.951206	-0.125456	0.797388
	C9473	C	0.960256	-0.125594	0.789001
	C9474	C	0.964572	-0.214887	0.785121
	C9475	C	0.973003	-0.214806	0.777463
	C9476	C	0.977303	-0.125665	0.773530
	C9477	C	0.972942	-0.036500	0.777351
	C9478	C	0.964523	-0.036575	0.785018
	C9479	C	0.986388	-0.125480	0.765259
	H9480	H	0.976302	-0.283727	0.774547
	H9481	H	0.961313	-0.284062	0.788153
	H9482	H	0.976090	-0.217173	0.850860
	H9483	H	0.961219	-0.216948	0.837106
	H9484	H	0.937593	-0.375396	0.795387
	H9485	H	0.937453	-0.125319	0.829752
	H9486	H	0.875000	-0.125349	0.857801
	H9487	H	1.000118	-0.375588	0.767305
	H9488	H	0.913682	-0.282969	0.788243
	H9489	H	0.898689	-0.282968	0.774606
	H9490	H	0.898801	-0.217091	0.850680
	H9491	H	0.913780	-0.216715	0.837061
	H9492	H	0.898787	0.033350	0.774472
	H9493	H	0.913785	0.033399	0.788097
	H9494	H	0.913660	-0.532253	0.836891
	H9495	H	0.898718	-0.531951	0.850512
	H9496	H	0.961357	-0.533169	0.836773
	H9497	H	0.976269	-0.533032	0.850487
	H9498	H	0.961241	0.032577	0.787994
	H9499	H	0.976206	0.032655	0.774374
	Al9500	Al	0.937534	-0.000165	0.812509
	Al9501	Al	0.937524	0.249780	0.812630
	Al9502	Al	0.875010	0.250106	0.749985
	Al9503	Al	0.875012	-0.000267	0.750038
	O9504	O	0.947629	0.040489	0.824487
	O9505	O	0.937532	0.124922	0.804381
	O9506	O	0.937452	0.375131	0.820802
	O9507	O	0.989924	0.040729	0.863147
	O9508	O	0.927424	0.040638	0.824467
	O9509	O	0.885158	0.040483	0.863142
	O9510	O	0.927453	0.208808	0.824576
	O9511	O	0.927435	0.290562	0.800680
	O9512	O	0.885128	0.290657	0.761883
	O9513	O	0.947600	0.208844	0.824578
	O9514	O	0.947664	0.290767	0.800760
	O9515	O	0.989873	0.291191	0.762013
	O9516	O	0.885071	0.208793	0.862998
	O9517	O	0.927407	0.459042	0.800627
	O9518	O	0.885177	0.458953	0.761859
	O9519	O	0.989829	0.459505	0.762005
	O9520	O	0.947623	0.459019	0.800653
	O9521	O	0.989898	0.208956	0.863227
	O9522	O	0.875038	0.374968	0.866738
	O9523	O	0.999987	0.124941	0.758328
	C9524	C	0.972967	0.214032	0.847708
	C9525	C	0.977304	0.124911	0.851617
	C9526	C	0.972972	0.035829	0.847710
	C9527	C	0.964565	0.035832	0.840019
	C9528	C	0.960221	0.124911	0.836112
	C9529	C	0.964547	0.213992	0.840027
	C9530	C	0.951198	0.124725	0.827713
	C9531	C	0.986320	0.124811	0.860046
	C9532	C	0.923876	0.124690	0.827701
	C9533	C	0.914801	0.124700	0.836042
	C9534	C	0.910432	0.213869	0.839858
	C9535	C	0.902004	0.213723	0.847548
	C9536	C	0.897731	0.124778	0.851526
	C9537	C	0.902069	0.035676	0.847659
	C9538	C	0.910499	0.035789	0.839986
	C9539	C	0.888663	0.124436	0.859890
	C9540	C	0.923858	0.374581	0.797459
	C9541	C	0.914801	0.374613	0.789111
	C9542	C	0.910558	0.463707	0.785023
	C9543	C	0.902146	0.463737	0.777314
	C9544	C	0.897750	0.374531	0.773518
	C9545	C	0.902001	0.285371	0.777593
	C9546	C	0.910423	0.285412	0.785281
	C9547	C	0.888701	0.374782	0.765113
	C9548	C	0.951202	0.375113	0.797503
	C9549	C	0.960229	0.375109	0.789105
	C9550	C	0.964549	0.285833	0.785196
	C9551	C	0.972950	0.285979	0.777502
	C9552	C	0.977249	0.375297	0.773543
	C9553	C	0.972902	0.464520	0.777396
	C9554	C	0.964507	0.464425	0.785114
	C9555	C	0.986287	0.375155	0.765195
	H9556	H	0.976214	0.216836	0.774483
	H9557	H	0.961315	0.216781	0.788222
	H9558	H	0.976198	0.282905	0.850752
	H9559	H	0.961286	0.282971	0.837005
	H9560	H	0.937451	0.124993	0.795327
	H9561	H	0.937397	0.375377	0.829796
	H9562	H	0.875093	0.375445	0.857806
	H9563	H	0.999941	0.125391	0.767322
	H9564	H	0.913636	0.216273	0.788406
	H9565	H	0.898693	0.216235	0.774670
	H9566	H	0.898707	0.282829	0.850489
	H9567	H	0.913629	0.282841	0.836792
	H9568	H	0.898952	0.533046	0.774162
	H9569	H	0.913883	0.532878	0.787913
	H9570	H	0.913772	-0.033246	0.836978
	H9571	H	0.898831	-0.033572	0.850656
	H9572	H	0.961301	-0.033064	0.836975
	H9573	H	0.976226	-0.033203	0.850760
	H9574	H	0.961251	0.533579	0.788100
	H9575	H	0.976145	0.533638	0.774335
	Al9576	Al	0.937430	-0.500386	0.937637
	Al9577	Al	0.937465	-0.250006	0.937600
	Al9578	Al	0.874940	-0.250189	0.875003
	Al9579	Al	0.874990	-0.500403	0.875019
	O9580	O	0.947560	-0.459047	0.949538
	O9581	O	0.937463	-0.374907	0.929404
	O9582	O	0.937463	-0.125243	0.945810
	O9583	O	0.989859	-0.459323	0.988241
	O9584	O	0.927302	-0.458695	0.949445
	O9585	O	0.885074	-0.458789	0.988091
	O9586	O	0.927292	-0.290578	0.949403
	O9587	O	0.927430	-0.208854	0.925607
	O9588	O	0.885075	-0.209403	0.886904
	O9589	O	0.947603	-0.290959	0.949535
	O9590	O	0.947569	-0.209154	0.925605
	O9591	O	0.989919	-0.209042	0.887124
	O9592	O	0.885077	-0.290817	0.988152
	O9593	O	0.927403	-0.040881	0.925630
	O9594	O	0.885048	-0.041094	0.886950
	O9595	O	0.989890	-0.041089	0.887016
	O9596	O	0.947597	-0.040986	0.925641
	O9597	O	0.989871	-0.291252	0.988241
	O9598	O	0.874978	-0.125247	0.991839
	O9599	O	1.000004	-0.375220	0.883320
	C9600	C	0.972976	-0.286249	0.972676
	C9601	C	0.977283	-0.375273	0.976622
	C9602	C	0.972956	-0.464241	0.972688
	C9603	C	0.964543	-0.464010	0.964975
	C9604	C	0.960227	-0.375113	0.961033
	C9605	C	0.964561	-0.286171	0.964959
	C9606	C	0.951168	-0.375151	0.952720
	C9607	C	0.986302	-0.375128	0.985011
	C9608	C	0.923717	-0.374703	0.952606
	C9609	C	0.914694	-0.374433	0.960984
	C9610	C	0.910445	-0.285588	0.965038
	C9611	C	0.902057	-0.285702	0.972757
	C9612	C	0.897690	-0.374691	0.976562
	C9613	C	0.901967	-0.463692	0.972565
	C9614	C	0.910351	-0.463415	0.964833
	C9615	C	0.888640	-0.374727	0.984927
	C9616	C	0.923824	-0.124870	0.922423
	C9617	C	0.914794	-0.124995	0.913984
	C9618	C	0.910379	-0.036182	0.910180
	C9619	C	0.901965	-0.036092	0.902522
	C9620	C	0.897696	-0.125107	0.898481
	C9621	C	0.902054	-0.213968	0.902402
	C9622	C	0.910459	-0.214039	0.910055
	C9623	C	0.888635	-0.125063	0.890135
	C9624	C	0.951140	-0.125195	0.922423
	C9625	C	0.960179	-0.125018	0.914034
	C9626	C	0.964513	-0.214118	0.910206
	C9627	C	0.972967	-0.214070	0.902572
	C9628	C	0.977239	-0.125154	0.898596
	C9629	C	0.972916	-0.036211	0.902463
	C9630	C	0.964475	-0.036039	0.910105
	C9631	C	0.986304	-0.125056	0.890248
	H9632	H	0.976252	-0.283059	0.899664
	H9633	H	0.961293	-0.282950	0.913286
	H9634	H	0.976226	-0.217156	0.975704
	H9635	H	0.961330	-0.217135	0.961984
	H9636	H	0.937417	-0.374860	0.920431
	H9637	H	0.937491	-0.125078	0.954764
	H9638	H	0.875107	-0.125202	0.982832
	H9639	H	1.000062	-0.375565	0.892283
	H9640	H	0.913743	-0.282667	0.913116
	H9641	H	0.898753	-0.282849	0.899401
	H9642	H	0.898850	-0.216768	0.975873
	H9643	H	0.913741	-0.216483	0.962088
	H9644	H	0.898620	0.032925	0.899607
	H9645	H	0.913557	0.032586	0.913336
	H9646	H	0.913583	-0.532360	0.961725
	H9647	H	0.898687	-0.532807	0.975525
	H9648	H	0.961292	-0.532894	0.961989
	H9649	H	0.976185	-0.533253	0.975702
	H9650	H	0.961232	0.032998	0.913085
	H9651	H	0.976161	0.032685	0.899443
	Al9652	Al	0.937480	-0.000309	0.937630
	Al9653	Al	0.937467	0.250255	0.937648
	Al9654	Al	0.874977	0.249783	0.874958
	Al9655	Al	0.874961	-0.000237	0.874989
	O9656	O	0.947578	0.040712	0.949585
	O9657	O	0.937466	0.124988	0.929423
	O9658	O	0.937480	0.375028	0.945869
	O9659	O	0.989889	0.040358	0.988229
	O9660	O	0.927305	0.040972	0.949472
	O9661	O	0.885049	0.040734	0.988094
	O9662	O	0.927336	0.209099	0.949573
	O9663	O	0.927376	0.290837	0.925700
	O9664	O	0.885153	0.290620	0.886858
	O9665	O	0.947596	0.208998	0.949585
	O9666	O	0.947552	0.290739	0.925696
	O9667	O	0.989926	0.290661	0.887064
	O9668	O	0.885003	0.209088	0.988082
	O9669	O	0.927342	0.458998	0.925714
	O9670	O	0.885104	0.458656	0.886908
	O9671	O	0.989814	0.458843	0.886954
	O9672	O	0.947580	0.458885	0.925734
	O9673	O	0.989900	0.208731	0.988167
	O9674	O	0.874938	0.374922	0.991829
	O9675	O	1.000042	0.124750	0.883318
	C9676	C	0.973034	0.213787	0.972652
	C9677	C	0.977298	0.124597	0.976611
	C9678	C	0.972960	0.035456	0.972719
	C9679	C	0.964539	0.035688	0.965035
	C9680	C	0.960244	0.124882	0.961100
	C9681	C	0.964610	0.214002	0.964978
	C9682	C	0.951161	0.125012	0.952746
	C9683	C	0.986337	0.124523	0.984981
	C9684	C	0.923759	0.125066	0.952706
	C9685	C	0.914696	0.124744	0.961067
	C9686	C	0.910372	0.214069	0.964968
	C9687	C	0.901952	0.214114	0.972677
	C9688	C	0.897651	0.124911	0.976613
	C9689	C	0.901971	0.035579	0.972708
	C9690	C	0.910391	0.035400	0.965008
	C9691	C	0.888594	0.125070	0.984940
	C9692	C	0.923800	0.374977	0.922495
	C9693	C	0.914754	0.374992	0.914122
	C9694	C	0.910390	0.464029	0.910266
	C9695	C	0.901978	0.463853	0.902532
	C9696	C	0.897699	0.374760	0.898551
	C9697	C	0.902081	0.285843	0.902387
	C9698	C	0.910501	0.285882	0.910114
	C9699	C	0.888700	0.374606	0.890093
	C9700	C	0.951150	0.374876	0.922500
	C9701	C	0.960171	0.374637	0.914105
	C9702	C	0.964481	0.285612	0.910142
	C9703	C	0.972892	0.285664	0.902443
	C9704	C	0.977248	0.374788	0.898550
	C9705	C	0.972952	0.463836	0.902541
	C9706	C	0.964531	0.463822	0.910232
	C9707	C	0.986304	0.374538	0.890201
	H9708	H	0.976100	0.216683	0.899420
	H9709	H	0.961226	0.216436	0.913125
	H9710	H	0.976330	0.282516	0.975662
	H9711	H	0.961372	0.283293	0.961979
	H9712	H	0.937364	0.124981	0.920460
	H9713	H	0.937526	0.375091	0.954876
	H9714	H	0.874667	0.375283	0.982844
	H9715	H	1.000001	0.124840	0.892336
	H9716	H	0.913799	0.216820	0.913029
	H9717	H	0.898897	0.216711	0.899280
	H9718	H	0.898699	0.283194	0.975657
	H9719	H	0.913616	0.283326	0.961967
	H9720	H	0.898744	0.533048	0.899526
	H9721	H	0.913609	0.533208	0.913297
	H9722	H	0.913684	-0.033813	0.962019
	H9723	H	0.898750	-0.033614	0.975768
	H9724	H	0.961259	-0.033479	0.962036
	H9725	H	0.976175	-0.033585	0.975754
	H9726	H	0.961290	0.532936	0.913290
	H9727	H	0.976252	0.532957	0.899534
