data_Molecule from HDF5

_cell_length_a		155.660395
_cell_length_b		13.345186
_cell_length_c		57.008016
_cell_angle_alpha	90.036223
_cell_angle_beta	90.737331
_cell_angle_gamma	90.361887
_symmetry_space_group_name_H-M	'P 1'
_symmetry_Int_Tables_number		1

loop_
	_symmetry_equiv_pos_as_xyz
	x,y,z

loop_
	_atom_site_label
	_atom_site_type_symbol
	_atom_site_fract_x
	_atom_site_fract_y
	_atom_site_fract_z
	Al0	Al	0.064048	-0.498886	0.052117
	Al1	Al	0.064070	-0.249126	0.052196
	Al2	Al	0.000487	-0.248940	-0.003343
	Al3	Al	0.000488	-0.498775	-0.003482
	O4	O	0.073488	-0.457325	0.071899
	O5	O	0.063903	-0.374005	0.037081
	O6	O	0.064174	-0.123894	0.067300
	O7	O	0.117977	-0.459555	0.088938
	O8	O	0.054735	-0.458898	0.071710
	O9	O	0.010724	-0.456974	0.094598
	O10	O	0.054840	-0.290582	0.072040
	O11	O	0.054460	-0.209373	0.033098
	O12	O	0.009912	-0.206637	0.016421
	O13	O	0.073655	-0.289062	0.071289
	O14	O	0.073218	-0.207309	0.032179
	O15	O	0.117247	-0.209234	0.009190
	O16	O	0.010929	-0.288610	0.095216
	O17	O	0.054659	-0.041072	0.032556
	O18	O	0.010110	-0.038521	0.015675
	O19	O	0.117383	-0.041022	0.009731
	O20	O	0.073431	-0.038848	0.032850
	O21	O	0.118157	-0.291356	0.088059
	O22	O	0.001444	-0.124012	0.099543
	O23	O	0.126662	-0.374067	0.004806
	C24	C	0.100388	-0.284925	0.080570
	C25	C	0.104817	-0.375209	0.082349
	C26	C	0.100148	-0.464916	0.081722
	C27	C	0.091259	-0.464215	0.079439
	C28	C	0.086832	-0.373781	0.077636
	C29	C	0.091512	-0.284189	0.078285
	C30	C	0.077298	-0.373296	0.073405
	C31	C	0.114339	-0.375320	0.086659
	C32	C	0.051129	-0.374783	0.074157
	C33	C	0.041719	-0.374727	0.079752
	C34	C	0.037332	-0.284430	0.082068
	C35	C	0.028512	-0.283758	0.085603
	C36	C	0.023898	-0.373507	0.086996
	C37	C	0.028296	-0.463810	0.084628
	C38	C	0.037109	-0.464480	0.081092
	C39	C	0.014511	-0.372857	0.092609
	C40	C	0.050804	-0.124997	0.031079
	C41	C	0.041291	-0.124490	0.026900
	C42	C	0.036837	-0.034322	0.024961
	C43	C	0.027949	-0.033704	0.022608
	C44	C	0.023275	-0.123335	0.022072
	C45	C	0.027724	-0.213579	0.023828
	C46	C	0.036616	-0.214049	0.026187
	C47	C	0.013758	-0.122849	0.017865
	C48	C	0.077013	-0.123285	0.030331
	C49	C	0.086390	-0.123902	0.024698
	C50	C	0.090770	-0.214049	0.022266
	C51	C	0.099581	-0.214504	0.018730
	C52	C	0.104236	-0.124877	0.017452
	C53	C	0.099829	-0.034788	0.019768
	C54	C	0.091028	-0.034288	0.023310
	C55	C	0.113631	-0.125054	0.011846
	H56	H	0.102843	-0.284743	0.016765
	H57	H	0.087246	-0.283763	0.023095
	H58	H	0.103909	-0.215270	0.081123
	H59	H	0.088176	-0.213990	0.077085
	H60	H	0.063523	-0.373920	0.020988
	H61	H	0.064269	-0.123516	0.083471
	H62	H	0.001247	-0.123775	0.083463
	H63	H	0.126991	-0.373781	0.020953
	H64	H	0.039958	-0.284354	0.027484
	H65	H	0.024231	-0.283256	0.023402
	H66	H	0.025201	-0.213114	0.087322
	H67	H	0.040802	-0.214305	0.081026
	H68	H	0.024601	0.036717	0.021194
	H69	H	0.040350	0.035662	0.025318
	H70	H	0.040413	-0.534731	0.079255
	H71	H	0.024833	-0.533936	0.085557
	H72	H	0.087721	-0.534056	0.079205
	H73	H	0.103473	-0.535035	0.083131
	H74	H	0.087746	0.036074	0.024970
	H75	H	0.103298	0.034972	0.018631
	Al76	Al	0.064053	0.000976	0.052281
	Al77	Al	0.064049	0.251064	0.052266
	Al78	Al	0.000506	0.251105	-0.003591
	Al79	Al	0.000514	0.001038	-0.003382
	O80	O	0.073477	0.042845	0.071938
	O81	O	0.063945	0.126073	0.037182
	O82	O	0.064227	0.376221	0.067285
	O83	O	0.117991	0.040196	0.088798
	O84	O	0.054749	0.040986	0.071842
	O85	O	0.010704	0.042717	0.094368
	O86	O	0.054909	0.209283	0.072369
	O87	O	0.054424	0.290944	0.033194
	O88	O	0.009891	0.293196	0.016248
	O89	O	0.073667	0.211119	0.071351
	O90	O	0.073238	0.292320	0.032415
	O91	O	0.117185	0.290649	0.009240
	O92	O	0.010883	0.211072	0.094944
	O93	O	0.054577	0.459165	0.032558
	O94	O	0.010063	0.461505	0.015687
	O95	O	0.117382	0.458913	0.009942
	O96	O	0.073331	0.460565	0.032480
	O97	O	0.118218	0.208564	0.087927
	O98	O	0.001447	0.376117	0.099429
	O99	O	0.126621	0.125726	0.004822
	C100	C	0.100405	0.215337	0.080487
	C101	C	0.104840	0.125063	0.082378
	C102	C	0.100163	0.035528	0.081688
	C103	C	0.091271	0.036196	0.079383
	C104	C	0.086830	0.126412	0.077627
	C105	C	0.091501	0.215963	0.078190
	C106	C	0.077311	0.126784	0.073416
	C107	C	0.114359	0.124628	0.086608
	C108	C	0.051140	0.125148	0.074405
	C109	C	0.041753	0.125748	0.079973
	C110	C	0.037323	0.215905	0.082142
	C111	C	0.028521	0.216233	0.085564
	C112	C	0.023888	0.126551	0.086908
	C113	C	0.028307	0.036472	0.084494
	C114	C	0.037108	0.036086	0.081053
	C115	C	0.014492	0.126781	0.092463
	C116	C	0.050761	0.375036	0.031162
	C117	C	0.041241	0.375260	0.026877
	C118	C	0.036792	0.465598	0.025191
	C119	C	0.027919	0.466321	0.022876
	C120	C	0.023235	0.376759	0.022104
	C121	C	0.027673	0.286385	0.023816
	C122	C	0.036556	0.285751	0.026133
	C123	C	0.013712	0.377146	0.017787
	C124	C	0.076974	0.376492	0.030171
	C125	C	0.086364	0.376178	0.024520
	C126	C	0.090766	0.285927	0.022115
	C127	C	0.099571	0.285413	0.018637
	C128	C	0.104208	0.375187	0.017303
	C129	C	0.099808	0.465390	0.019614
	C130	C	0.091001	0.465825	0.023086
	C131	C	0.113612	0.374844	0.011864
	H132	H	0.102875	0.215172	0.016828
	H133	H	0.087275	0.215950	0.022994
	H134	H	0.103928	0.285044	0.080895
	H135	H	0.088183	0.286497	0.076812
	H136	H	0.063835	0.125839	0.021097
	H137	H	0.064633	0.376283	0.083368
	H138	H	0.001176	0.377228	0.083324
	H139	H	0.126537	0.125216	0.020867
	H140	H	0.039899	0.215492	0.027338
	H141	H	0.024147	0.216832	0.023271
	H142	H	0.025213	0.286554	0.087342
	H143	H	0.040828	0.285687	0.081278
	H144	H	0.024558	0.536499	0.021514
	H145	H	0.040335	0.535492	0.025637
	H146	H	0.040389	-0.034416	0.079321
	H147	H	0.024803	-0.033262	0.085449
	H148	H	0.087768	-0.033755	0.079041
	H149	H	0.103504	-0.034996	0.083050
	H150	H	0.087658	0.535963	0.024698
	H151	H	0.103297	0.535189	0.018579
	Al152	Al	0.065152	-0.498822	0.170334
	Al153	Al	0.065088	-0.248988	0.170293
	Al154	Al	0.001580	-0.248861	0.114640
	Al155	Al	0.001615	-0.498878	0.114553
	O156	O	0.074521	-0.456833	0.190121
	O157	O	0.065024	-0.374262	0.155283
	O158	O	0.065243	-0.124174	0.185326
	O159	O	0.119079	-0.460118	0.206328
	O160	O	0.055771	-0.459346	0.189580
	O161	O	0.011763	-0.457824	0.212489
	O162	O	0.055948	-0.291237	0.190291
	O163	O	0.055542	-0.209555	0.150977
	O164	O	0.011010	-0.206705	0.134199
	O165	O	0.074726	-0.288700	0.189208
	O166	O	0.074214	-0.206728	0.150041
	O167	O	0.118234	-0.209516	0.127236
	O168	O	0.011917	-0.289545	0.213029
	O169	O	0.055725	-0.041374	0.150555
	O170	O	0.011214	-0.038454	0.133697
	O171	O	0.118483	-0.041283	0.128009
	O172	O	0.074517	-0.038552	0.150990
	O173	O	0.119239	-0.291808	0.206140
	O174	O	0.002465	-0.124775	0.217458
	O175	O	0.127696	-0.374358	0.122869
	C176	C	0.101470	-0.284929	0.198718
	C177	C	0.105894	-0.375068	0.200469
	C178	C	0.101206	-0.464436	0.199906
	C179	C	0.092322	-0.463605	0.197578
	C180	C	0.087896	-0.373509	0.195722
	C181	C	0.092588	-0.284214	0.196389
	C182	C	0.078369	-0.372907	0.191509
	C183	C	0.115418	-0.375697	0.204568
	C184	C	0.052177	-0.375217	0.192241
	C185	C	0.042772	-0.374807	0.197675
	C186	C	0.038345	-0.284795	0.199745
	C187	C	0.029535	-0.284578	0.203233
	C188	C	0.024911	-0.374224	0.204846
	C189	C	0.029336	-0.464198	0.202774
	C190	C	0.038145	-0.464440	0.199280
	C191	C	0.015515	-0.373790	0.210437
	C192	C	0.051903	-0.125305	0.148988
	C193	C	0.042369	-0.124728	0.144637
	C194	C	0.037932	-0.034375	0.142933
	C195	C	0.029050	-0.033732	0.140666
	C196	C	0.024377	-0.123329	0.139981
	C197	C	0.028812	-0.213745	0.141758
	C198	C	0.037701	-0.214372	0.144016
	C199	C	0.014852	-0.122758	0.135796
	C200	C	0.078052	-0.123048	0.148293
	C201	C	0.087448	-0.123774	0.142683
	C202	C	0.091836	-0.213851	0.140303
	C203	C	0.100654	-0.214429	0.136759
	C204	C	0.105281	-0.124696	0.135418
	C205	C	0.100891	-0.034653	0.137814
	C206	C	0.092083	-0.034249	0.141365
	C207	C	0.114665	-0.125271	0.129884
	H208	H	0.103957	-0.284709	0.135041
	H209	H	0.088351	-0.283680	0.141230
	H210	H	0.104982	-0.215465	0.199043
	H211	H	0.089274	-0.214361	0.195000
	H212	H	0.064865	-0.374422	0.139066
	H213	H	0.065367	-0.123905	0.201402
	H214	H	0.002195	-0.125042	0.201366
	H215	H	0.127728	-0.374084	0.138980
	H216	H	0.041045	-0.284487	0.145258
	H217	H	0.025298	-0.283709	0.141310
	H218	H	0.026227	-0.214399	0.204689
	H219	H	0.041832	-0.215014	0.198541
	H220	H	0.025718	0.036473	0.139275
	H221	H	0.041451	0.035275	0.143305
	H222	H	0.041455	-0.534821	0.197738
	H223	H	0.025852	-0.533773	0.203816
	H224	H	0.088796	-0.533139	0.197184
	H225	H	0.104543	-0.534515	0.201207
	H226	H	0.088803	0.036046	0.143142
	H227	H	0.104359	0.035393	0.136878
	Al228	Al	0.065140	0.000831	0.170315
	Al229	Al	0.065112	0.250932	0.170260
	Al230	Al	0.001562	0.251146	0.114479
	Al231	Al	0.001579	0.000984	0.114543
	O232	O	0.074551	0.042957	0.190159
	O233	O	0.065050	0.125680	0.155194
	O234	O	0.065202	0.375918	0.185388
	O235	O	0.119030	0.039420	0.206579
	O236	O	0.055767	0.040909	0.189600
	O237	O	0.011785	0.041900	0.212523
	O238	O	0.055988	0.209096	0.190457
	O239	O	0.055503	0.290305	0.151198
	O240	O	0.010995	0.293166	0.134131
	O241	O	0.074753	0.211036	0.189163
	O242	O	0.074281	0.292769	0.150287
	O243	O	0.118210	0.290291	0.127201
	O244	O	0.011900	0.210101	0.212697
	O245	O	0.055706	0.458605	0.150501
	O246	O	0.011182	0.461327	0.133750
	O247	O	0.118444	0.458526	0.127861
	O248	O	0.074467	0.461368	0.150967
	O249	O	0.119263	0.207564	0.205917
	O250	O	0.002493	0.375280	0.217285
	O251	O	0.127685	0.125845	0.122826
	C252	C	0.101457	0.215013	0.198747
	C253	C	0.105893	0.124813	0.200380
	C254	C	0.101209	0.035413	0.199889
	C255	C	0.092330	0.036219	0.197630
	C256	C	0.087897	0.126536	0.195838
	C257	C	0.092575	0.215835	0.196483
	C258	C	0.078394	0.126841	0.191450
	C259	C	0.115410	0.123797	0.204575
	C260	C	0.052183	0.125023	0.192324
	C261	C	0.042794	0.125393	0.197848
	C262	C	0.038350	0.215361	0.199949
	C263	C	0.029550	0.215662	0.203407
	C264	C	0.024924	0.125991	0.204892
	C265	C	0.029355	0.036022	0.202759
	C266	C	0.038169	0.035781	0.199275
	C267	C	0.015535	0.126148	0.210440
	C268	C	0.051872	0.374674	0.149060
	C269	C	0.042349	0.375245	0.144735
	C270	C	0.037903	0.465620	0.143130
	C271	C	0.029015	0.466290	0.140727
	C272	C	0.024344	0.376746	0.139890
	C273	C	0.028781	0.286468	0.141577
	C274	C	0.037672	0.285710	0.143944
	C275	C	0.014826	0.376892	0.135705
	C276	C	0.078056	0.377006	0.148361
	C277	C	0.087423	0.376567	0.142687
	C278	C	0.091819	0.286223	0.140346
	C279	C	0.100611	0.285522	0.136726
	C280	C	0.105257	0.375228	0.135307
	C281	C	0.100877	0.465594	0.137713
	C282	C	0.092071	0.466379	0.141314
	C283	C	0.114652	0.374682	0.129790
	H284	H	0.103887	0.215354	0.134878
	H285	H	0.088329	0.216270	0.141311
	H286	H	0.104987	0.284674	0.199163
	H287	H	0.089253	0.286236	0.195092
	H288	H	0.065103	0.125342	0.139061
	H289	H	0.065220	0.375242	0.201428
	H290	H	0.002390	0.374664	0.201202
	H291	H	0.127620	0.126123	0.139022
	H292	H	0.040984	0.215496	0.145262
	H293	H	0.025263	0.216671	0.141043
	H294	H	0.026189	0.285572	0.204997
	H295	H	0.041810	0.285364	0.198752
	H296	H	0.025677	0.536849	0.139497
	H297	H	0.041445	0.535365	0.143796
	H298	H	0.041493	-0.034212	0.197567
	H299	H	0.025895	-0.033753	0.203829
	H300	H	0.088793	-0.033447	0.197225
	H301	H	0.104535	-0.034923	0.201232
	H302	H	0.088773	0.536646	0.143096
	H303	H	0.104398	0.535219	0.136715
	Al304	Al	0.065907	-0.500073	0.288810
	Al305	Al	0.065855	-0.250592	0.288507
	Al306	Al	0.002574	-0.249976	0.232580
	Al307	Al	0.002623	-0.499726	0.232334
	O308	O	0.074618	-0.458390	0.310736
	O309	O	0.065984	-0.375485	0.273713
	O310	O	0.065654	-0.125512	0.303593
	O311	O	0.112733	-0.456393	0.376727
	O312	O	0.056405	-0.460270	0.307650
	O313	O	0.012791	-0.459474	0.332829
	O314	O	0.056549	-0.292022	0.307947
	O315	O	0.056548	-0.210451	0.268311
	O316	O	0.012027	-0.207956	0.252126
	O317	O	0.074742	-0.290296	0.310224
	O318	O	0.075196	-0.208059	0.269789
	O319	O	0.118977	-0.209508	0.245429
	O320	O	0.012930	-0.291220	0.333391
	O321	O	0.056715	-0.042147	0.268166
	O322	O	0.012157	-0.039637	0.251706
	O323	O	0.119104	-0.040958	0.245984
	O324	O	0.075448	-0.039500	0.270471
	O325	O	0.112833	-0.288427	0.376337
	O326	O	0.003500	-0.126477	0.336752
	O327	O	0.128207	-0.375031	0.241564
	C328	C	0.097645	-0.284005	0.349575
	C329	C	0.101420	-0.372896	0.356686
	C330	C	0.097401	-0.461998	0.350447
	C331	C	0.089809	-0.462318	0.337388
	C332	C	0.086047	-0.373533	0.330244
	C333	C	0.090059	-0.284318	0.336529
	C334	C	0.077880	-0.374039	0.316007
	C335	C	0.109560	-0.372586	0.371039
	C336	C	0.052827	-0.376078	0.310421
	C337	C	0.043564	-0.375662	0.316948
	C338	C	0.039172	-0.285960	0.319607
	C339	C	0.030438	-0.286036	0.323995
	C340	C	0.025882	-0.375666	0.325631
	C341	C	0.030268	-0.465381	0.323220
	C342	C	0.039014	-0.465271	0.318891
	C343	C	0.016537	-0.375342	0.331053
	C344	C	0.052888	-0.126039	0.266500
	C345	C	0.043364	-0.125386	0.262532
	C346	C	0.038900	-0.035175	0.260961
	C347	C	0.030019	-0.034618	0.258774
	C348	C	0.025350	-0.124188	0.258018
	C349	C	0.029806	-0.214383	0.259726
	C350	C	0.038686	-0.214869	0.261933
	C351	C	0.015845	-0.123991	0.253790
	C352	C	0.079004	-0.124071	0.268152
	C353	C	0.088378	-0.124609	0.262968
	C354	C	0.092761	-0.214547	0.260492
	C355	C	0.101508	-0.214936	0.256377
	C356	C	0.106097	-0.125440	0.254628
	C357	C	0.101727	-0.035516	0.257456
	C358	C	0.092983	-0.035221	0.261601
	C359	C	0.115401	-0.125294	0.248326
	H360	H	0.104807	-0.284715	0.254302
	H361	H	0.089255	-0.283936	0.261605
	H362	H	0.100641	-0.214721	0.354389
	H363	H	0.087222	-0.215344	0.331093
	H364	H	0.066018	-0.376128	0.257605
	H365	H	0.065387	-0.125623	0.319655
	H366	H	0.003485	-0.126585	0.320762
	H367	H	0.127864	-0.374941	0.257707
	H368	H	0.042043	-0.284852	0.263171
	H369	H	0.026288	-0.284014	0.259272
	H370	H	0.027130	-0.216534	0.326011
	H371	H	0.042606	-0.216624	0.318129
	H372	H	0.026675	0.035787	0.257541
	H373	H	0.042425	0.034583	0.261363
	H374	H	0.042327	-0.535204	0.316819
	H375	H	0.026825	-0.534891	0.324527
	H376	H	0.086770	-0.531632	0.332685
	H377	H	0.100223	-0.530771	0.355989
	H378	H	0.089672	0.034405	0.263675
	H379	H	0.105205	0.033951	0.256220
	Al380	Al	0.065874	0.000453	0.288773
	Al381	Al	0.065838	0.249580	0.288902
	Al382	Al	0.002591	0.250137	0.232321
	Al383	Al	0.002604	0.000206	0.232422
	O384	O	0.074581	0.041294	0.310949
	O385	O	0.065992	0.124908	0.273874
	O386	O	0.065604	0.374788	0.303908
	O387	O	0.112744	0.043894	0.376700
	O388	O	0.056421	0.039861	0.307665
	O389	O	0.012765	0.040764	0.332740
	O390	O	0.056518	0.208072	0.308228
	O391	O	0.056491	0.289665	0.268813
	O392	O	0.012036	0.291604	0.252018
	O393	O	0.074697	0.209442	0.310545
	O394	O	0.075219	0.291156	0.270154
	O395	O	0.118906	0.289588	0.245333
	O396	O	0.012900	0.209207	0.332990
	O397	O	0.056701	0.457945	0.268117
	O398	O	0.012208	0.459998	0.251492
	O399	O	0.119060	0.458350	0.245891
	O400	O	0.075381	0.459608	0.270381
	O401	O	0.112872	0.211800	0.376226
	O402	O	0.003488	0.374232	0.336535
	O403	O	0.128180	0.124978	0.241505
	C404	C	0.097691	0.215576	0.349321
	C405	C	0.101461	0.126971	0.356571
	C406	C	0.097381	0.037732	0.350600
	C407	C	0.089764	0.037470	0.337642
	C408	C	0.086001	0.126101	0.330395
	C409	C	0.090068	0.215281	0.336357
	C410	C	0.077855	0.125662	0.316195
	C411	C	0.109608	0.127632	0.370946
	C412	C	0.052828	0.123959	0.310503
	C413	C	0.043522	0.123921	0.316891
	C414	C	0.039184	0.213716	0.319822
	C415	C	0.030449	0.214082	0.324112
	C416	C	0.025846	0.124408	0.325449
	C417	C	0.030209	0.034627	0.322943
	C418	C	0.038939	0.034382	0.318637
	C419	C	0.016507	0.125024	0.330846
	C420	C	0.052846	0.373968	0.266736
	C421	C	0.043338	0.374426	0.262649
	C422	C	0.038892	0.464425	0.260952
	C423	C	0.030007	0.465054	0.258716
	C424	C	0.025359	0.375461	0.258069
	C425	C	0.029807	0.285499	0.259846
	C426	C	0.038687	0.284859	0.262150
	C427	C	0.015868	0.375601	0.253601
	C428	C	0.078976	0.375206	0.268247
	C429	C	0.088351	0.375036	0.262956
	C430	C	0.092713	0.284944	0.260520
	C431	C	0.101466	0.284413	0.256281
	C432	C	0.106055	0.374110	0.254523
	C433	C	0.101712	0.464211	0.257425
	C434	C	0.092966	0.464650	0.261615
	C435	C	0.115354	0.373910	0.248198
	H436	H	0.104763	0.214516	0.254164
	H437	H	0.089211	0.215696	0.261769
	H438	H	0.100760	0.284772	0.353830
	H439	H	0.087257	0.284062	0.330739
	H440	H	0.066176	0.125738	0.257856
	H441	H	0.065157	0.374565	0.319914
	H442	H	0.003512	0.374668	0.320557
	H443	H	0.127598	0.125073	0.257583
	H444	H	0.042024	0.214839	0.263573
	H445	H	0.026292	0.215811	0.259494
	H446	H	0.027155	0.283709	0.326377
	H447	H	0.042657	0.283020	0.318653
	H448	H	0.026674	0.535366	0.257494
	H449	H	0.042416	0.534177	0.261425
	H450	H	0.042221	-0.035483	0.316388
	H451	H	0.026744	-0.034637	0.324279
	H452	H	0.086695	-0.031842	0.333142
	H453	H	0.100214	-0.030857	0.356152
	H454	H	0.089671	0.534747	0.263797
	H455	H	0.105204	0.533704	0.256213
	Al456	Al	0.059063	-0.497710	0.461041
	Al457	Al	0.059099	-0.247268	0.460912
	Al458	Al	0.003392	-0.251010	0.351696
	Al459	Al	0.003414	-0.501167	0.351576
	O460	O	0.068288	-0.455962	0.481568
	O461	O	0.059329	-0.372510	0.445989
	O462	O	0.059073	-0.122682	0.475882
	O463	O	0.112786	-0.457777	0.498181
	O464	O	0.049615	-0.457032	0.479436
	O465	O	0.005977	-0.457035	0.504269
	O466	O	0.049710	-0.288644	0.479713
	O467	O	0.050322	-0.207415	0.439147
	O468	O	0.012143	-0.209356	0.373531
	O469	O	0.068449	-0.287724	0.481178
	O470	O	0.068441	-0.206223	0.441564
	O471	O	0.112019	-0.206587	0.416601
	O472	O	0.006080	-0.288855	0.504619
	O473	O	0.050412	-0.039266	0.439035
	O474	O	0.012260	-0.041416	0.373162
	O475	O	0.112190	-0.038288	0.417055
	O476	O	0.068570	-0.037694	0.441972
	O477	O	0.112954	-0.289686	0.497836
	O478	O	-0.003150	-0.123551	0.508573
	O479	O	0.121439	-0.371141	0.413328
	C480	C	0.095157	-0.283007	0.490298
	C481	C	0.099627	-0.372841	0.491869
	C482	C	0.094972	-0.462220	0.491089
	C483	C	0.086086	-0.461786	0.488864
	C484	C	0.081616	-0.371954	0.487311
	C485	C	0.086273	-0.282490	0.488045
	C486	C	0.072108	-0.371853	0.483152
	C487	C	0.109135	-0.373606	0.496192
	C488	C	0.046001	-0.372887	0.481639
	C489	C	0.036645	-0.372908	0.487042
	C490	C	0.032255	-0.283065	0.489306
	C491	C	0.023513	-0.282694	0.493543
	C492	C	0.018960	-0.372491	0.495494
	C493	C	0.023347	-0.462203	0.492870
	C494	C	0.032088	-0.462423	0.488633
	C495	C	0.009668	-0.372710	0.501853
	C496	C	0.047134	-0.123369	0.433637
	C497	C	0.038989	-0.123641	0.419303
	C498	C	0.035128	-0.034701	0.412544
	C499	C	0.027531	-0.034923	0.399528
	C500	C	0.023572	-0.124216	0.393083
	C501	C	0.027436	-0.213052	0.399808
	C502	C	0.035025	-0.212725	0.412836
	C503	C	0.015407	-0.125235	0.378828
	C504	C	0.072137	-0.121840	0.439199
	C505	C	0.081421	-0.122044	0.432800
	C506	C	0.085788	-0.211833	0.430247
	C507	C	0.094523	-0.211851	0.425946
	C508	C	0.099066	-0.122360	0.424131
	C509	C	0.094679	-0.032747	0.426506
	C510	C	0.085945	-0.032639	0.430804
	C511	C	0.108418	-0.122266	0.418869
	H512	H	0.097849	-0.281222	0.424125
	H513	H	0.082362	-0.281399	0.431823
	H514	H	0.098665	-0.213254	0.490894
	H515	H	0.082907	-0.212319	0.486973
	H516	H	0.059840	-0.372673	0.429855
	H517	H	0.059041	-0.123044	0.491972
	H518	H	-0.002887	-0.123549	0.492511
	H519	H	0.121260	-0.371369	0.429416
	H520	H	0.037919	-0.281500	0.418036
	H521	H	0.024470	-0.282069	0.394823
	H522	H	0.020198	-0.213078	0.495569
	H523	H	0.035712	-0.213757	0.487949
	H524	H	0.024617	0.034096	0.394315
	H525	H	0.038081	0.034589	0.417574
	H526	H	0.035415	-0.532152	0.486654
	H527	H	0.019930	-0.531963	0.494267
	H528	H	0.082596	-0.531633	0.488431
	H529	H	0.098318	-0.532267	0.492361
	H530	H	0.082635	0.036991	0.432787
	H531	H	0.098116	0.036631	0.425118
	Al532	Al	0.059075	0.002157	0.460887
	Al533	Al	0.059089	0.252961	0.461082
	Al534	Al	0.003399	0.249266	0.351372
	Al535	Al	0.003413	-0.001363	0.351588
	O536	O	0.068251	0.044244	0.481616
	O537	O	0.059321	0.127594	0.446052
	O538	O	0.058972	0.377704	0.476022
	O539	O	0.112756	0.041805	0.498445
	O540	O	0.049585	0.042571	0.479277
	O541	O	0.005941	0.043408	0.504169
	O542	O	0.049739	0.210982	0.479887
	O543	O	0.050297	0.292758	0.439398
	O544	O	0.012182	0.290900	0.373258
	O545	O	0.068429	0.212676	0.481184
	O546	O	0.068437	0.294333	0.441882
	O547	O	0.112014	0.293381	0.416595
	O548	O	0.006114	0.211801	0.504740
	O549	O	0.050322	0.460739	0.439118
	O550	O	0.012259	0.458833	0.373115
	O551	O	0.112116	0.461776	0.416849
	O552	O	0.068519	0.462672	0.442062
	O553	O	0.112990	0.209997	0.497778
	O554	O	-0.003111	0.376646	0.508462
	O555	O	0.121573	0.128813	0.413218
	C556	C	0.095175	0.216791	0.490229
	C557	C	0.099625	0.126690	0.491806
	C558	C	0.094940	0.037237	0.490919
	C559	C	0.086057	0.038011	0.488642
	C560	C	0.081616	0.128104	0.487143
	C561	C	0.086300	0.217467	0.487946
	C562	C	0.072095	0.128256	0.483127
	C563	C	0.109119	0.126156	0.496265
	C564	C	0.045996	0.126804	0.481651
	C565	C	0.036637	0.126713	0.486959
	C566	C	0.032248	0.216557	0.489274
	C567	C	0.023520	0.216821	0.493507
	C568	C	0.018968	0.127348	0.495545
	C569	C	0.023326	0.037352	0.492802
	C570	C	0.032071	0.037080	0.488560
	C571	C	0.009668	0.127456	0.501908
	C572	C	0.047092	0.376548	0.433701
	C573	C	0.038984	0.375948	0.419290
	C574	C	0.035166	0.464676	0.412426
	C575	C	0.027572	0.464186	0.399404
	C576	C	0.023572	0.375023	0.392991
	C577	C	0.027393	0.286289	0.399893
	C578	C	0.034990	0.286892	0.412905
	C579	C	0.015437	0.375015	0.378630
	C580	C	0.072101	0.378626	0.439349
	C581	C	0.081378	0.378562	0.432866
	C582	C	0.085746	0.288581	0.430094
	C583	C	0.094480	0.288439	0.425811
	C584	C	0.099043	0.378073	0.424195
	C585	C	0.094654	0.467981	0.426469
	C586	C	0.085924	0.468072	0.430763
	C587	C	0.108393	0.377564	0.418841
	H588	H	0.097783	0.218766	0.423767
	H589	H	0.082283	0.219154	0.431533
	H590	H	0.098697	0.286602	0.490832
	H591	H	0.082975	0.287727	0.486867
	H592	H	0.059835	0.127805	0.429996
	H593	H	0.059086	0.377723	0.491984
	H594	H	-0.002591	0.376673	0.492508
	H595	H	0.121781	0.128382	0.429322
	H596	H	0.037863	0.218117	0.418327
	H597	H	0.024407	0.217051	0.394955
	H598	H	0.020241	0.286736	0.495476
	H599	H	0.035695	0.286062	0.487828
	H600	H	0.024731	0.532911	0.394031
	H601	H	0.038145	0.533581	0.417403
	H602	H	0.035383	-0.032517	0.486479
	H603	H	0.019841	-0.031834	0.494189
	H604	H	0.082529	-0.031557	0.488130
	H605	H	0.098288	-0.032852	0.492154
	H606	H	0.082629	0.537966	0.432677
	H607	H	0.098115	0.537490	0.424971
	Al608	Al	0.059875	-0.498581	0.580073
	Al609	Al	0.059870	-0.248265	0.579955
	Al610	Al	-0.003387	-0.249034	0.523480
	Al611	Al	-0.003384	-0.498183	0.523544
	O612	O	0.069333	-0.456578	0.599597
	O613	O	0.059802	-0.373597	0.564952
	O614	O	0.059937	-0.123310	0.595117
	O615	O	0.113852	-0.458136	0.616659
	O616	O	0.050559	-0.458527	0.599618
	O617	O	0.006534	-0.456995	0.622573
	O618	O	0.050717	-0.290444	0.600061
	O619	O	0.050275	-0.208503	0.560726
	O620	O	0.005779	-0.206588	0.544205
	O621	O	0.069498	-0.288247	0.599042
	O622	O	0.069034	-0.206338	0.559957
	O623	O	0.113056	-0.207567	0.537003
	O624	O	0.006739	-0.288645	0.623096
	O625	O	0.050428	-0.040179	0.560445
	O626	O	0.005912	-0.038319	0.543800
	O627	O	0.113183	-0.039495	0.537419
	O628	O	0.069143	-0.038142	0.560339
	O629	O	0.113990	-0.289926	0.616095
	O630	O	-0.002745	-0.123966	0.627299
	O631	O	0.122461	-0.372469	0.532534
	C632	C	0.096206	-0.283824	0.608666
	C633	C	0.100674	-0.373940	0.610338
	C634	C	0.096019	-0.463686	0.609611
	C635	C	0.087139	-0.463093	0.607229
	C636	C	0.082673	-0.372973	0.605468
	C637	C	0.087326	-0.283257	0.606251
	C638	C	0.073149	-0.372565	0.601110
	C639	C	0.110184	-0.373961	0.614600
	C640	C	0.046947	-0.374388	0.602088
	C641	C	0.037550	-0.373947	0.607631
	C642	C	0.033131	-0.283944	0.609980
	C643	C	0.024310	-0.283584	0.613568
	C644	C	0.019688	-0.373358	0.614914
	C645	C	0.024092	-0.463268	0.612493
	C646	C	0.032914	-0.463585	0.608942
	C647	C	0.010318	-0.373049	0.620526
	C648	C	0.046587	-0.124239	0.558799
	C649	C	0.037105	-0.123887	0.554321
	C650	C	0.032648	-0.033798	0.552664
	C651	C	0.023771	-0.033230	0.550422
	C652	C	0.019104	-0.122702	0.549796
	C653	C	0.023570	-0.212719	0.551314
	C654	C	0.032444	-0.213319	0.553560
	C655	C	0.009587	-0.122571	0.545723
	C656	C	0.072793	-0.122154	0.557893
	C657	C	0.082179	-0.122292	0.552436
	C658	C	0.086589	-0.212607	0.550029
	C659	C	0.095393	-0.212899	0.546438
	C660	C	0.100041	-0.123375	0.545100
	C661	C	0.095611	-0.033241	0.547451
	C662	C	0.086813	-0.032773	0.551032
	C663	C	0.109423	-0.123652	0.539517
	H664	H	0.098730	-0.283109	0.544655
	H665	H	0.083112	-0.282421	0.551107
	H666	H	0.099722	-0.214027	0.609309
	H667	H	0.083980	-0.212967	0.605078
	H668	H	0.059699	-0.373268	0.548787
	H669	H	0.060114	-0.123603	0.611192
	H670	H	-0.002880	-0.124384	0.611259
	H671	H	0.122665	-0.372863	0.548705
	H672	H	0.035797	-0.283659	0.554801
	H673	H	0.020059	-0.282478	0.550812
	H674	H	0.021004	-0.213277	0.615299
	H675	H	0.036611	-0.214035	0.609088
	H676	H	0.020430	0.036580	0.549195
	H677	H	0.036159	0.035806	0.553192
	H678	H	0.036221	-0.533802	0.607206
	H679	H	0.020639	-0.533188	0.613434
	H680	H	0.083613	-0.532677	0.606773
	H681	H	0.099360	-0.534126	0.611005
	H682	H	0.083507	0.037283	0.552904
	H683	H	0.099099	0.036639	0.546497
	Al684	Al	0.059837	0.001576	0.580022
	Al685	Al	0.059860	0.251582	0.580087
	Al686	Al	-0.003400	0.251215	0.523538
	Al687	Al	-0.003385	0.001896	0.523624
	O688	O	0.069326	0.043299	0.599586
	O689	O	0.059762	0.126660	0.565032
	O690	O	0.059963	0.376549	0.595171
	O691	O	0.113874	0.041539	0.616630
	O692	O	0.050489	0.041691	0.599507
	O693	O	0.006510	0.043455	0.622414
	O694	O	0.050628	0.209960	0.599883
	O695	O	0.050308	0.291254	0.560764
	O696	O	0.005769	0.293415	0.544226
	O697	O	0.069480	0.211437	0.599214
	O698	O	0.069058	0.293094	0.560135
	O699	O	0.113032	0.292306	0.536894
	O700	O	0.006664	0.211836	0.622963
	O701	O	0.050481	0.459685	0.560249
	O702	O	0.005968	0.461761	0.543560
	O703	O	0.113195	0.460476	0.537508
	O704	O	0.069217	0.461435	0.560614
	O705	O	0.114016	0.209924	0.615919
	O706	O	-0.002801	0.376795	0.627425
	O707	O	0.122441	0.127551	0.532632
	C708	C	0.096215	0.216344	0.608526
	C709	C	0.100680	0.126112	0.610274
	C710	C	0.096026	0.036424	0.609691
	C711	C	0.087123	0.036766	0.607366
	C712	C	0.082662	0.126994	0.605521
	C713	C	0.087324	0.216666	0.606233
	C714	C	0.073141	0.127216	0.601161
	C715	C	0.110207	0.125682	0.614464
	C716	C	0.046880	0.125722	0.601963
	C717	C	0.037488	0.126103	0.607465
	C718	C	0.033088	0.216259	0.609976
	C719	C	0.024282	0.216662	0.613532
	C720	C	0.019651	0.127080	0.614794
	C721	C	0.024075	0.036862	0.612526
	C722	C	0.032878	0.036446	0.608974
	C723	C	0.010283	0.127640	0.620428
	C724	C	0.046660	0.375748	0.558627
	C725	C	0.037140	0.375874	0.554301
	C726	C	0.032695	0.465950	0.552609
	C727	C	0.023799	0.466358	0.550408
	C728	C	0.019145	0.376745	0.549715
	C729	C	0.023600	0.286698	0.551294
	C730	C	0.032489	0.286276	0.553508
	C731	C	0.009598	0.377394	0.545671
	C732	C	0.072819	0.377262	0.558009
	C733	C	0.082195	0.377040	0.552382
	C734	C	0.086606	0.287052	0.550020
	C735	C	0.095408	0.286661	0.546376
	C736	C	0.100039	0.376394	0.544993
	C737	C	0.095633	0.466425	0.547310
	C738	C	0.086821	0.466754	0.550937
	C739	C	0.109430	0.376570	0.539439
	H740	H	0.098714	0.216304	0.544792
	H741	H	0.083124	0.217125	0.551181
	H742	H	0.099721	0.286221	0.609065
	H743	H	0.083979	0.286996	0.605023
	H744	H	0.059722	0.126792	0.548859
	H745	H	0.060222	0.376646	0.611260
	H746	H	-0.002992	0.376617	0.611306
	H747	H	0.122533	0.127662	0.548730
	H748	H	0.035841	0.216127	0.554684
	H749	H	0.020093	0.217166	0.550729
	H750	H	0.020981	0.286833	0.615361
	H751	H	0.036585	0.286111	0.609066
	H752	H	0.020449	0.536553	0.549100
	H753	H	0.036206	0.535577	0.553043
	H754	H	0.036193	-0.033414	0.607252
	H755	H	0.020616	-0.032924	0.613544
	H756	H	0.083608	-0.032939	0.607021
	H757	H	0.099386	-0.033697	0.611110
	H758	H	0.083531	0.536987	0.552813
	H759	H	0.099124	0.536240	0.546419
	Al760	Al	0.060873	-0.498227	0.698222
	Al761	Al	0.060862	-0.248389	0.698396
	Al762	Al	-0.002652	-0.248788	0.642356
	Al763	Al	-0.002631	-0.498688	0.642558
	O764	O	0.070278	-0.456109	0.718083
	O765	O	0.060823	-0.373398	0.683184
	O766	O	0.061033	-0.123393	0.713554
	O767	O	0.114833	-0.458536	0.734451
	O768	O	0.051517	-0.458446	0.717627
	O769	O	0.007570	-0.456928	0.740904
	O770	O	0.051722	-0.290550	0.718265
	O771	O	0.051272	-0.208535	0.679396
	O772	O	0.006768	-0.206846	0.662166
	O773	O	0.070484	-0.287732	0.717563
	O774	O	0.070055	-0.206856	0.678336
	O775	O	0.114081	-0.208126	0.655281
	O776	O	0.007706	-0.288490	0.741108
	O777	O	0.051431	-0.040184	0.678782
	O778	O	0.006986	-0.038605	0.661352
	O779	O	0.114236	-0.039863	0.655790
	O780	O	0.070224	-0.038566	0.678882
	O781	O	0.115044	-0.290224	0.733805
	O782	O	-0.001724	-0.123611	0.745601
	O783	O	0.123517	-0.372959	0.650856
	C784	C	0.097215	-0.283572	0.726497
	C785	C	0.101665	-0.373718	0.728252
	C786	C	0.096986	-0.463368	0.727697
	C787	C	0.088102	-0.462757	0.725496
	C788	C	0.083651	-0.372587	0.723809
	C789	C	0.088331	-0.282980	0.724305
	C790	C	0.074127	-0.372237	0.719623
	C791	C	0.111187	-0.374209	0.732438
	C792	C	0.047933	-0.374380	0.720260
	C793	C	0.038541	-0.373963	0.725683
	C794	C	0.034137	-0.283973	0.728079
	C795	C	0.025331	-0.283427	0.731702
	C796	C	0.020702	-0.373072	0.733082
	C797	C	0.025115	-0.463144	0.730776
	C798	C	0.033913	-0.463583	0.727147
	C799	C	0.011317	-0.372760	0.738739
	C800	C	0.047602	-0.124367	0.677302
	C801	C	0.038113	-0.123905	0.672880
	C802	C	0.033663	-0.033929	0.671142
	C803	C	0.024780	-0.033596	0.668714
	C804	C	0.020123	-0.123242	0.667954
	C805	C	0.024582	-0.213196	0.669602
	C806	C	0.033458	-0.213578	0.671998
	C807	C	0.010625	-0.122972	0.663521
	C808	C	0.073835	-0.122811	0.676307
	C809	C	0.083206	-0.122800	0.670579
	C810	C	0.087636	-0.212790	0.668239
	C811	C	0.096447	-0.213419	0.664655
	C812	C	0.101087	-0.123886	0.663422
	C813	C	0.096661	-0.033762	0.665595
	C814	C	0.087851	-0.033283	0.669162
	C815	C	0.110471	-0.124024	0.657841
	H816	H	0.099749	-0.283595	0.662899
	H817	H	0.084165	-0.282773	0.669220
	H818	H	0.100749	-0.213859	0.726779
	H819	H	0.084996	-0.212511	0.722874
	H820	H	0.060710	-0.373586	0.667110
	H821	H	0.061305	-0.123097	0.729620
	H822	H	-0.001974	-0.123558	0.729404
	H823	H	0.123678	-0.373266	0.666815
	H824	H	0.036818	-0.283532	0.673386
	H825	H	0.021101	-0.283104	0.668999
	H826	H	0.022034	-0.213172	0.733344
	H827	H	0.037619	-0.214332	0.726978
	H828	H	0.021412	0.036151	0.667454
	H829	H	0.037151	0.035875	0.671789
	H830	H	0.037211	-0.533918	0.725324
	H831	H	0.021614	-0.533094	0.731717
	H832	H	0.084556	-0.532539	0.724985
	H833	H	0.100313	-0.533515	0.728958
	H834	H	0.084546	0.037043	0.670849
	H835	H	0.100138	0.036212	0.664496
	Al836	Al	0.060885	0.001232	0.698454
	Al837	Al	0.060911	0.251393	0.698344
	Al838	Al	-0.002651	0.251609	0.642478
	Al839	Al	-0.002631	0.001393	0.642348
	O840	O	0.070326	0.043588	0.718089
	O841	O	0.060845	0.126309	0.683287
	O842	O	0.061048	0.376758	0.713367
	O843	O	0.114880	0.040824	0.734595
	O844	O	0.051576	0.041321	0.717932
	O845	O	0.007536	0.043331	0.740498
	O846	O	0.051754	0.209358	0.718516
	O847	O	0.051307	0.290587	0.679241
	O848	O	0.006816	0.293239	0.662078
	O849	O	0.070537	0.211915	0.717371
	O850	O	0.070057	0.293766	0.678152
	O851	O	0.114099	0.291664	0.655131
	O852	O	0.007741	0.211706	0.741268
	O853	O	0.051482	0.458871	0.678669
	O854	O	0.006938	0.461461	0.661696
	O855	O	0.114247	0.459991	0.655737
	O856	O	0.070278	0.462015	0.678884
	O857	O	0.115043	0.209230	0.733880
	O858	O	-0.001730	0.376545	0.745863
	O859	O	0.123570	0.127020	0.650819
	C860	C	0.097274	0.215837	0.726503
	C861	C	0.101711	0.125547	0.728197
	C862	C	0.097031	0.036094	0.727627
	C863	C	0.088153	0.036737	0.725399
	C864	C	0.083713	0.126964	0.723621
	C865	C	0.088396	0.216429	0.724207
	C866	C	0.074171	0.127555	0.719449
	C867	C	0.111227	0.125251	0.732393
	C868	C	0.047983	0.125608	0.720517
	C869	C	0.038577	0.125874	0.725925
	C870	C	0.034164	0.215952	0.728252
	C871	C	0.025350	0.216137	0.731740
	C872	C	0.020709	0.126672	0.733058
	C873	C	0.025127	0.036603	0.730783
	C874	C	0.033937	0.036241	0.727297
	C875	C	0.011322	0.127263	0.738631
	C876	C	0.047668	0.374877	0.677027
	C877	C	0.038147	0.375566	0.672774
	C878	C	0.033695	0.465652	0.671098
	C879	C	0.024814	0.466365	0.668748
	C880	C	0.020153	0.376969	0.667846
	C881	C	0.024596	0.286851	0.669660
	C882	C	0.033484	0.286077	0.672006
	C883	C	0.010619	0.377173	0.663719
	C884	C	0.073856	0.377703	0.676318
	C885	C	0.083243	0.377153	0.670753
	C886	C	0.087672	0.286949	0.668474
	C887	C	0.096467	0.286482	0.664903
	C888	C	0.101116	0.375972	0.663479
	C889	C	0.096696	0.466161	0.665787
	C890	C	0.087896	0.466593	0.669394
	C891	C	0.110484	0.375847	0.657796
	H892	H	0.099783	0.216186	0.663152
	H893	H	0.084181	0.217267	0.669472
	H894	H	0.100784	0.285729	0.726994
	H895	H	0.085058	0.286637	0.723005
	H896	H	0.060721	0.126182	0.667251
	H897	H	0.061279	0.376786	0.729384
	H898	H	-0.001973	0.376928	0.729643
	H899	H	0.123888	0.126842	0.666846
	H900	H	0.036810	0.215797	0.673303
	H901	H	0.021070	0.217169	0.669306
	H902	H	0.022043	0.286214	0.733446
	H903	H	0.037631	0.285945	0.727244
	H904	H	0.021483	0.536717	0.667686
	H905	H	0.037200	0.535144	0.671647
	H906	H	0.037274	-0.033952	0.725624
	H907	H	0.021650	-0.033139	0.731704
	H908	H	0.084625	-0.032888	0.725060
	H909	H	0.100377	-0.034137	0.728983
	H910	H	0.084572	0.536731	0.671120
	H911	H	0.100203	0.536002	0.664783
	Al912	Al	0.061998	-0.498524	0.815994
	Al913	Al	0.061964	-0.248517	0.816050
	Al914	Al	-0.001602	-0.248329	0.760711
	Al915	Al	-0.001587	-0.498402	0.760915
	O916	O	0.071417	-0.456628	0.835679
	O917	O	0.061859	-0.373303	0.800951
	O918	O	0.062094	-0.123398	0.831146
	O919	O	0.115947	-0.458988	0.852343
	O920	O	0.052642	-0.458400	0.835511
	O921	O	0.008643	-0.456894	0.858652
	O922	O	0.052783	-0.290116	0.836092
	O923	O	0.052415	-0.208514	0.796799
	O924	O	0.007830	-0.206414	0.780355
	O925	O	0.071584	-0.288198	0.835131
	O926	O	0.071076	-0.206591	0.795962
	O927	O	0.115087	-0.209035	0.773015
	O928	O	0.008828	-0.288631	0.859094
	O929	O	0.052524	-0.040027	0.796441
	O930	O	0.008024	-0.038128	0.779682
	O931	O	0.115313	-0.040567	0.773693
	O932	O	0.071295	-0.038404	0.796555
	O933	O	0.116122	-0.290713	0.851826
	O934	O	-0.000658	-0.123783	0.863574
	O935	O	0.124585	-0.373666	0.768505
	C936	C	0.098319	-0.284036	0.844422
	C937	C	0.102768	-0.374260	0.846134
	C938	C	0.098085	-0.463912	0.845442
	C939	C	0.089205	-0.463198	0.843219
	C940	C	0.084756	-0.372980	0.841544
	C941	C	0.089435	-0.283322	0.842221
	C942	C	0.075234	-0.372591	0.837281
	C943	C	0.112293	-0.374726	0.850325
	C944	C	0.049043	-0.374320	0.838127
	C945	C	0.039657	-0.374276	0.843863
	C946	C	0.035236	-0.284180	0.846004
	C947	C	0.026429	-0.283639	0.849590
	C948	C	0.021816	-0.373277	0.851118
	C949	C	0.026231	-0.463420	0.848897
	C950	C	0.035040	-0.463900	0.845309
	C951	C	0.012421	-0.372962	0.856655
	C952	C	0.048738	-0.124204	0.794895
	C953	C	0.039204	-0.123944	0.790781
	C954	C	0.034727	-0.033810	0.789160
	C955	C	0.025854	-0.033480	0.786957
	C956	C	0.021188	-0.123286	0.786171
	C957	C	0.025651	-0.213433	0.787824
	C958	C	0.034531	-0.213786	0.790068
	C959	C	0.011661	-0.122479	0.781819
	C960	C	0.074882	-0.122628	0.794019
	C961	C	0.084283	-0.123263	0.788503
	C962	C	0.088697	-0.213450	0.786231
	C963	C	0.097508	-0.213989	0.782668
	C964	C	0.102140	-0.124339	0.781270
	C965	C	0.097733	-0.034248	0.783571
	C966	C	0.088922	-0.033673	0.787115
	C967	C	0.111531	-0.124654	0.775701
	H968	H	0.100795	-0.284263	0.780902
	H969	H	0.085205	-0.283458	0.787154
	H970	H	0.101868	-0.214394	0.844845
	H971	H	0.086098	-0.213057	0.840962
	H972	H	0.061745	-0.372969	0.784854
	H973	H	0.062097	-0.122674	0.847297
	H974	H	-0.000692	-0.123739	0.847428
	H975	H	0.124840	-0.373355	0.784542
	H976	H	0.037891	-0.284006	0.791350
	H977	H	0.022102	-0.282925	0.787353
	H978	H	0.023135	-0.213265	0.851305
	H979	H	0.038713	-0.214245	0.844901
	H980	H	0.022487	0.036763	0.785817
	H981	H	0.038265	0.035932	0.789717
	H982	H	0.038339	-0.534289	0.843658
	H983	H	0.022756	-0.533223	0.850049
	H984	H	0.085669	-0.532791	0.842676
	H985	H	0.101435	-0.534206	0.846584
	H986	H	0.085618	0.036703	0.788727
	H987	H	0.101218	0.035761	0.782527
	Al988	Al	0.061971	0.001709	0.816077
	Al989	Al	0.061972	0.251587	0.816102
	Al990	Al	-0.001596	0.251198	0.760786
	Al991	Al	-0.001614	0.001726	0.760590
	O992	O	0.071415	0.043538	0.835793
	O993	O	0.061900	0.126597	0.801058
	O994	O	0.062042	0.376485	0.831198
	O995	O	0.115911	0.041070	0.852363
	O996	O	0.052665	0.041841	0.835670
	O997	O	0.008641	0.043002	0.858582
	O998	O	0.052788	0.209951	0.836156
	O999	O	0.052387	0.291284	0.796956
	O1000	O	0.007834	0.293475	0.780545
	O1001	O	0.071586	0.211892	0.835225
	O1002	O	0.071162	0.293559	0.796185
	O1003	O	0.115161	0.291944	0.773042
	O1004	O	0.008807	0.211204	0.859120
	O1005	O	0.052573	0.459575	0.796329
	O1006	O	0.007994	0.461825	0.780078
	O1007	O	0.115347	0.460015	0.773589
	O1008	O	0.071363	0.461847	0.796547
	O1009	O	0.116119	0.209205	0.851760
	O1010	O	-0.000604	0.375826	0.863673
	O1011	O	0.124580	0.126659	0.768644
	C1012	C	0.098287	0.216102	0.844450
	C1013	C	0.102737	0.125944	0.846162
	C1014	C	0.098063	0.036392	0.845448
	C1015	C	0.089177	0.036883	0.843221
	C1016	C	0.084734	0.127204	0.841561
	C1017	C	0.089398	0.216722	0.842242
	C1018	C	0.075238	0.127575	0.837351
	C1019	C	0.112274	0.125275	0.850335
	C1020	C	0.049024	0.125792	0.838236
	C1021	C	0.039650	0.126095	0.843799
	C1022	C	0.035221	0.216194	0.845935
	C1023	C	0.026434	0.216519	0.849511
	C1024	C	0.021807	0.126860	0.851028
	C1025	C	0.026230	0.036859	0.848787
	C1026	C	0.035024	0.036532	0.845231
	C1027	C	0.012417	0.126990	0.856597
	C1028	C	0.048733	0.375610	0.794903
	C1029	C	0.039190	0.375886	0.790619
	C1030	C	0.034755	0.466056	0.788868
	C1031	C	0.025858	0.466483	0.786701
	C1032	C	0.021189	0.377048	0.786167
	C1033	C	0.025642	0.286915	0.787718
	C1034	C	0.034537	0.286370	0.789903
	C1035	C	0.011651	0.377448	0.781965
	C1036	C	0.074953	0.377379	0.794065
	C1037	C	0.084329	0.377145	0.788535
	C1038	C	0.088756	0.287026	0.786386
	C1039	C	0.097563	0.286787	0.782838
	C1040	C	0.102188	0.376456	0.781273
	C1041	C	0.097751	0.466615	0.783287
	C1042	C	0.088945	0.466915	0.786862
	C1043	C	0.111568	0.376081	0.775649
	H1044	H	0.100889	0.216565	0.781320
	H1045	H	0.085301	0.217100	0.787618
	H1046	H	0.101815	0.285942	0.844806
	H1047	H	0.086042	0.286752	0.840978
	H1048	H	0.061881	0.126702	0.784957
	H1049	H	0.062111	0.376833	0.847298
	H1050	H	-0.000662	0.376003	0.847550
	H1051	H	0.124837	0.127202	0.784680
	H1052	H	0.037884	0.216422	0.791283
	H1053	H	0.022160	0.217221	0.787351
	H1054	H	0.023103	0.286626	0.851105
	H1055	H	0.038703	0.286077	0.844865
	H1056	H	0.022517	0.536827	0.785391
	H1057	H	0.038253	0.535856	0.789434
	H1058	H	0.038364	-0.033662	0.843560
	H1059	H	0.022734	-0.032954	0.849780
	H1060	H	0.085669	-0.033027	0.842695
	H1061	H	0.101428	-0.033651	0.846606
	H1062	H	0.085604	0.536985	0.788495
	H1063	H	0.101225	0.536461	0.782209
	Al1064	Al	0.063010	-0.498770	0.933944
	Al1065	Al	0.063022	-0.248448	0.933986
	Al1066	Al	-0.000575	-0.248921	0.878510
	Al1067	Al	-0.000530	-0.499028	0.878687
	O1068	O	0.072401	-0.456927	0.953771
	O1069	O	0.062887	-0.373900	0.918973
	O1070	O	0.063159	-0.123379	0.948951
	O1071	O	0.116911	-0.459560	0.970770
	O1072	O	0.053710	-0.458731	0.953532
	O1073	O	0.009656	-0.456656	0.976499
	O1074	O	0.053870	-0.290153	0.953960
	O1075	O	0.053429	-0.208499	0.914849
	O1076	O	0.008850	-0.206882	0.898250
	O1077	O	0.072599	-0.288454	0.953153
	O1078	O	0.072223	-0.207027	0.914108
	O1079	O	0.116183	-0.208811	0.891041
	O1080	O	0.009881	-0.288484	0.977344
	O1081	O	0.053557	-0.040289	0.914345
	O1082	O	0.009047	-0.038507	0.897828
	O1083	O	0.116365	-0.040505	0.891606
	O1084	O	0.072339	-0.038422	0.914432
	O1085	O	0.117126	-0.291427	0.969854
	O1086	O	0.000414	-0.124313	0.981521
	O1087	O	0.125608	-0.373522	0.886665
	C1088	C	0.099323	-0.284344	0.962561
	C1089	C	0.103769	-0.374606	0.964222
	C1090	C	0.099093	-0.464112	0.963511
	C1091	C	0.090230	-0.463629	0.961191
	C1092	C	0.085763	-0.373399	0.959526
	C1093	C	0.090436	-0.283726	0.960245
	C1094	C	0.076239	-0.372854	0.955187
	C1095	C	0.113282	-0.375345	0.968550
	C1096	C	0.050115	-0.374331	0.956052
	C1097	C	0.040729	-0.373761	0.961662
	C1098	C	0.036322	-0.283666	0.964134
	C1099	C	0.027511	-0.283235	0.967699
	C1100	C	0.022869	-0.372825	0.969048
	C1101	C	0.027284	-0.462771	0.966566
	C1102	C	0.036098	-0.463343	0.962999
	C1103	C	0.013454	-0.372760	0.974622
	C1104	C	0.049746	-0.124488	0.912775
	C1105	C	0.040219	-0.124089	0.908649
	C1106	C	0.035761	-0.033949	0.906988
	C1107	C	0.026875	-0.033537	0.904788
	C1108	C	0.022212	-0.123285	0.903992
	C1109	C	0.026682	-0.213445	0.905623
	C1110	C	0.035568	-0.213857	0.907834
	C1111	C	0.012685	-0.122851	0.899845
	C1112	C	0.075960	-0.122742	0.911925
	C1113	C	0.085348	-0.122795	0.906478
	C1114	C	0.089762	-0.213068	0.904186
	C1115	C	0.098561	-0.213641	0.900707
	C1116	C	0.103199	-0.123848	0.899173
	C1117	C	0.098788	-0.033530	0.901488
	C1118	C	0.089988	-0.033007	0.904997
	C1119	C	0.112596	-0.124445	0.893694
	H1120	H	0.101889	-0.283655	0.899154
	H1121	H	0.086273	-0.282605	0.905188
	H1122	H	0.102860	-0.214693	0.963345
	H1123	H	0.087077	-0.213582	0.959149
	H1124	H	0.062843	-0.373466	0.902873
	H1125	H	0.063322	-0.123783	0.965150
	H1126	H	0.000237	-0.124512	0.965404
	H1127	H	0.125776	-0.373870	0.902635
	H1128	H	0.038935	-0.283981	0.908932
	H1129	H	0.023187	-0.283116	0.905070
	H1130	H	0.024200	-0.213067	0.969487
	H1131	H	0.039789	-0.213725	0.963172
	H1132	H	0.023511	0.036697	0.903592
	H1133	H	0.039287	0.035870	0.907394
	H1134	H	0.039410	-0.533403	0.961185
	H1135	H	0.023807	-0.532887	0.967456
	H1136	H	0.086718	-0.533461	0.960859
	H1137	H	0.102421	-0.534503	0.965007
	H1138	H	0.086658	0.037306	0.906605
	H1139	H	0.102272	0.036126	0.900532
	Al1140	Al	0.063027	0.001619	0.933976
	Al1141	Al	0.063028	0.251151	0.934052
	Al1142	Al	-0.000539	0.251019	0.878658
	Al1143	Al	-0.000534	0.001129	0.878691
	O1144	O	0.072457	0.042953	0.953733
	O1145	O	0.062921	0.126391	0.918964
	O1146	O	0.063156	0.376296	0.949030
	O1147	O	0.116981	0.040476	0.970621
	O1148	O	0.053695	0.040949	0.953465
	O1149	O	0.009666	0.042809	0.976493
	O1150	O	0.053859	0.209184	0.954038
	O1151	O	0.053445	0.291190	0.914759
	O1152	O	0.008873	0.293065	0.898385
	O1153	O	0.072651	0.211226	0.953222
	O1154	O	0.072184	0.293148	0.913974
	O1155	O	0.116208	0.290996	0.890997
	O1156	O	0.009873	0.211091	0.977064
	O1157	O	0.053550	0.459508	0.914430
	O1158	O	0.009068	0.461440	0.897812
	O1159	O	0.116339	0.459404	0.891503
	O1160	O	0.072333	0.461387	0.914366
	O1161	O	0.117139	0.208764	0.970101
	O1162	O	0.000381	0.376243	0.981439
	O1163	O	0.125614	0.126048	0.886512
	C1164	C	0.099368	0.215385	0.962529
	C1165	C	0.103807	0.125150	0.964188
	C1166	C	0.099137	0.035392	0.963454
	C1167	C	0.090239	0.036133	0.961154
	C1168	C	0.085806	0.126580	0.959450
	C1169	C	0.090478	0.216178	0.960230
	C1170	C	0.076285	0.126932	0.955203
	C1171	C	0.113323	0.124733	0.968514
	C1172	C	0.050099	0.125213	0.956128
	C1173	C	0.040700	0.125436	0.961764
	C1174	C	0.036285	0.215529	0.964162
	C1175	C	0.027477	0.215745	0.967680
	C1176	C	0.022849	0.126004	0.969045
	C1177	C	0.027263	0.035869	0.966652
	C1178	C	0.036067	0.035596	0.963133
	C1179	C	0.013460	0.126774	0.974509
	C1180	C	0.049763	0.375311	0.912883
	C1181	C	0.040251	0.375481	0.908585
	C1182	C	0.035790	0.465629	0.906959
	C1183	C	0.026909	0.466247	0.904726
	C1184	C	0.022242	0.376739	0.904076
	C1185	C	0.026705	0.286670	0.905702
	C1186	C	0.035589	0.285985	0.907998
	C1187	C	0.012727	0.377077	0.899766
	C1188	C	0.075965	0.377204	0.911957
	C1189	C	0.085352	0.376751	0.906403
	C1190	C	0.089758	0.286501	0.904152
	C1191	C	0.098568	0.285982	0.900603
	C1192	C	0.103212	0.375670	0.899168
	C1193	C	0.098794	0.465839	0.901448
	C1194	C	0.089985	0.466414	0.905015
	C1195	C	0.112578	0.375156	0.893512
	H1196	H	0.101874	0.215793	0.898963
	H1197	H	0.086278	0.216570	0.905219
	H1198	H	0.102868	0.285397	0.963075
	H1199	H	0.087156	0.286544	0.959059
	H1200	H	0.062628	0.125957	0.902861
	H1201	H	0.063380	0.376697	0.965126
	H1202	H	0.000211	0.375829	0.965340
	H1203	H	0.125686	0.125979	0.902634
	H1204	H	0.038924	0.215702	0.909480
	H1205	H	0.023212	0.216854	0.905285
	H1206	H	0.024155	0.286045	0.969400
	H1207	H	0.039776	0.285116	0.963291
	H1208	H	0.023569	0.536464	0.903591
	H1209	H	0.039303	0.535459	0.907623
	H1210	H	0.039387	-0.034772	0.961452
	H1211	H	0.023763	-0.034055	0.967570
	H1212	H	0.086724	-0.033324	0.960708
	H1213	H	0.102473	-0.034878	0.964764
	H1214	H	0.086702	0.536870	0.906773
	H1215	H	0.102277	0.535842	0.900392
	Al1216	Al	0.190105	-0.499597	0.045356
	Al1217	Al	0.190096	-0.249415	0.045370
	Al1218	Al	0.126514	-0.249334	-0.010365
	Al1219	Al	0.126546	-0.499226	-0.010136
	O1220	O	0.199452	-0.457661	0.065235
	O1221	O	0.190015	-0.374552	0.030297
	O1222	O	0.190227	-0.124306	0.060382
	O1223	O	0.243986	-0.460878	0.081499
	O1224	O	0.180731	-0.459826	0.064635
	O1225	O	0.136703	-0.457272	0.087681
	O1226	O	0.180928	-0.291664	0.065286
	O1227	O	0.180494	-0.209871	0.026296
	O1228	O	0.136001	-0.207617	0.009382
	O1229	O	0.199723	-0.289433	0.064368
	O1230	O	0.199236	-0.207602	0.025235
	O1231	O	0.243202	-0.209438	0.002105
	O1232	O	0.136935	-0.289184	0.088347
	O1233	O	0.180676	-0.041629	0.025735
	O1234	O	0.136159	-0.039120	0.008843
	O1235	O	0.243402	-0.041319	0.002696
	O1236	O	0.199410	-0.039380	0.025790
	O1237	O	0.244233	-0.292682	0.080678
	O1238	O	0.127512	-0.124280	0.092699
	O1239	O	0.252674	-0.374308	-0.002228
	C1240	C	0.226384	-0.285563	0.073773
	C1241	C	0.230838	-0.375707	0.075336
	C1242	C	0.226158	-0.465124	0.074741
	C1243	C	0.217274	-0.464755	0.072620
	C1244	C	0.212828	-0.374680	0.070978
	C1245	C	0.217503	-0.285126	0.071671
	C1246	C	0.203335	-0.373951	0.066554
	C1247	C	0.240362	-0.376430	0.079436
	C1248	C	0.177158	-0.375594	0.067208
	C1249	C	0.167761	-0.375216	0.072835
	C1250	C	0.163341	-0.285070	0.075138
	C1251	C	0.154545	-0.284511	0.078809
	C1252	C	0.149909	-0.374052	0.080251
	C1253	C	0.154331	-0.464157	0.078060
	C1254	C	0.163137	-0.464803	0.074385
	C1255	C	0.140520	-0.373507	0.085830
	C1256	C	0.176835	-0.125632	0.024255
	C1257	C	0.167323	-0.125306	0.019942
	C1258	C	0.162894	-0.034920	0.018170
	C1259	C	0.154002	-0.034101	0.015771
	C1260	C	0.149332	-0.123751	0.015141
	C1261	C	0.153762	-0.214058	0.016736
	C1262	C	0.162656	-0.214794	0.019066
	C1263	C	0.139806	-0.123375	0.010889
	C1264	C	0.203009	-0.123703	0.023288
	C1265	C	0.212388	-0.123797	0.017625
	C1266	C	0.216793	-0.213939	0.015441
	C1267	C	0.225610	-0.214479	0.011806
	C1268	C	0.230221	-0.124826	0.010218
	C1269	C	0.225816	-0.034815	0.012505
	C1270	C	0.217014	-0.034260	0.016151
	C1271	C	0.239596	-0.125155	0.004709
	H1272	H	0.228905	-0.284647	0.009995
	H1273	H	0.213317	-0.283667	0.016442
	H1274	H	0.229891	-0.216069	0.074209
	H1275	H	0.214163	-0.215118	0.070402
	H1276	H	0.189827	-0.374906	0.014246
	H1277	H	0.190426	-0.123809	0.076535
	H1278	H	0.127320	-0.123771	0.076555
	H1279	H	0.252788	-0.374270	0.013827
	H1280	H	0.165984	-0.285255	0.020274
	H1281	H	0.150260	-0.283729	0.016216
	H1282	H	0.151243	-0.214343	0.080487
	H1283	H	0.166808	-0.215157	0.073940
	H1284	H	0.150659	0.036144	0.014384
	H1285	H	0.166410	0.034793	0.018706
	H1286	H	0.166433	-0.535136	0.072548
	H1287	H	0.150862	-0.534105	0.079136
	H1288	H	0.213767	-0.534567	0.072169
	H1289	H	0.229506	-0.535134	0.075977
	H1290	H	0.213719	0.036042	0.017712
	H1291	H	0.229254	0.035325	0.011249
	Al1292	Al	0.190089	0.000578	0.045284
	Al1293	Al	0.190089	0.250760	0.045116
	Al1294	Al	0.126536	0.251075	-0.010206
	Al1295	Al	0.126570	0.000611	-0.010240
	O1296	O	0.199503	0.042705	0.064815
	O1297	O	0.189986	0.125588	0.030065
	O1298	O	0.190173	0.375385	0.060272
	O1299	O	0.244009	0.039224	0.081511
	O1300	O	0.180757	0.040783	0.064740
	O1301	O	0.136755	0.042694	0.087655
	O1302	O	0.180906	0.209300	0.065149
	O1303	O	0.180501	0.290328	0.025941
	O1304	O	0.135975	0.292928	0.009558
	O1305	O	0.199659	0.210938	0.064383
	O1306	O	0.199258	0.293084	0.025333
	O1307	O	0.243219	0.291170	0.002133
	O1308	O	0.136979	0.211088	0.088571
	O1309	O	0.180711	0.458687	0.025391
	O1310	O	0.136148	0.461095	0.008905
	O1311	O	0.243394	0.459379	0.002669
	O1312	O	0.199431	0.461265	0.025744
	O1313	O	0.244220	0.207942	0.080899
	O1314	O	0.127489	0.375785	0.092850
	O1315	O	0.252724	0.125476	-0.002223
	C1316	C	0.226399	0.214903	0.073907
	C1317	C	0.230849	0.124564	0.075485
	C1318	C	0.226156	0.035090	0.074893
	C1319	C	0.217278	0.035766	0.072653
	C1320	C	0.212849	0.126067	0.070823
	C1321	C	0.217519	0.215650	0.071681
	C1322	C	0.203320	0.126711	0.066472
	C1323	C	0.240366	0.123806	0.079458
	C1324	C	0.177163	0.125090	0.067291
	C1325	C	0.167762	0.125670	0.072957
	C1326	C	0.163361	0.215857	0.075077
	C1327	C	0.154561	0.216214	0.078659
	C1328	C	0.149939	0.126341	0.080235
	C1329	C	0.154345	0.036202	0.078014
	C1330	C	0.163151	0.035994	0.074468
	C1331	C	0.140538	0.126820	0.085730
	C1332	C	0.176858	0.374806	0.023930
	C1333	C	0.167344	0.375208	0.019716
	C1334	C	0.162896	0.465401	0.017989
	C1335	C	0.154019	0.465879	0.015757
	C1336	C	0.149326	0.376324	0.015247
	C1337	C	0.153776	0.286177	0.017006
	C1338	C	0.162655	0.285649	0.019219
	C1339	C	0.139823	0.376902	0.011010
	C1340	C	0.203032	0.377127	0.023212
	C1341	C	0.212420	0.376705	0.017676
	C1342	C	0.216816	0.286579	0.015314
	C1343	C	0.225614	0.285925	0.011773
	C1344	C	0.230240	0.375511	0.010273
	C1345	C	0.225860	0.465678	0.012750
	C1346	C	0.217060	0.466280	0.016328
	C1347	C	0.239624	0.375428	0.004799
	H1348	H	0.228906	0.215705	0.009945
	H1349	H	0.213315	0.216882	0.016084
	H1350	H	0.229935	0.284428	0.074489
	H1351	H	0.214167	0.285917	0.070541
	H1352	H	0.189811	0.125374	0.013990
	H1353	H	0.190295	0.375388	0.076376
	H1354	H	0.127296	0.375498	0.076813
	H1355	H	0.253029	0.125644	0.013925
	H1356	H	0.165997	0.215394	0.020543
	H1357	H	0.150257	0.216576	0.016628
	H1358	H	0.151262	0.286445	0.080326
	H1359	H	0.166842	0.285589	0.073985
	H1360	H	0.150688	0.535975	0.014309
	H1361	H	0.166446	0.535200	0.018262
	H1362	H	0.166451	-0.034289	0.072897
	H1363	H	0.150888	-0.033759	0.079133
	H1364	H	0.213755	-0.033713	0.072247
	H1365	H	0.229480	-0.035292	0.076197
	H1366	H	0.213736	0.536771	0.017837
	H1367	H	0.229364	0.535313	0.011666
	Al1368	Al	0.190893	-0.499899	0.163815
	Al1369	Al	0.190925	-0.250568	0.164041
	Al1370	Al	0.127575	-0.249369	0.107746
	Al1371	Al	0.127598	-0.499055	0.107873
	O1372	O	0.199590	-0.458205	0.185918
	O1373	O	0.190947	-0.375127	0.148951
	O1374	O	0.190625	-0.125108	0.179016
	O1375	O	0.237718	-0.456710	0.251923
	O1376	O	0.181399	-0.460538	0.182674
	O1377	O	0.137773	-0.458535	0.207723
	O1378	O	0.181605	-0.291932	0.183676
	O1379	O	0.181500	-0.210944	0.144054
	O1380	O	0.137010	-0.207577	0.127413
	O1381	O	0.199791	-0.290212	0.185501
	O1382	O	0.200239	-0.208108	0.145086
	O1383	O	0.243908	-0.210657	0.120376
	O1384	O	0.137948	-0.290176	0.208328
	O1385	O	0.181732	-0.042589	0.143300
	O1386	O	0.137197	-0.039321	0.126980
	O1387	O	0.244069	-0.042297	0.120865
	O1388	O	0.200486	-0.039828	0.145829
	O1389	O	0.237912	-0.288821	0.251489
	O1390	O	0.128499	-0.124997	0.211613
	O1391	O	0.253165	-0.375573	0.116453
	C1392	C	0.222692	-0.284733	0.224802
	C1393	C	0.226466	-0.373394	0.231835
	C1394	C	0.222433	-0.462374	0.225641
	C1395	C	0.214838	-0.462380	0.212621
	C1396	C	0.211065	-0.373742	0.205523
	C1397	C	0.215094	-0.284764	0.211774
	C1398	C	0.202907	-0.374236	0.191241
	C1399	C	0.234598	-0.372915	0.246185
	C1400	C	0.177862	-0.376365	0.185760
	C1401	C	0.168570	-0.376173	0.192046
	C1402	C	0.164250	-0.286188	0.194987
	C1403	C	0.155511	-0.285599	0.199262
	C1404	C	0.150897	-0.375151	0.200637
	C1405	C	0.155232	-0.465191	0.198063
	C1406	C	0.163962	-0.465618	0.193797
	C1407	C	0.141534	-0.374369	0.205994
	C1408	C	0.177873	-0.126471	0.141940
	C1409	C	0.168343	-0.125695	0.137944
	C1410	C	0.163898	-0.035563	0.136360
	C1411	C	0.155018	-0.034856	0.134242
	C1412	C	0.150348	-0.124217	0.133535
	C1413	C	0.154793	-0.214383	0.135156
	C1414	C	0.163678	-0.215107	0.137331
	C1415	C	0.140849	-0.123711	0.129115
	C1416	C	0.204028	-0.124224	0.143438
	C1417	C	0.213401	-0.124786	0.138099
	C1418	C	0.217748	-0.214832	0.135695
	C1419	C	0.226496	-0.215494	0.131432
	C1420	C	0.231078	-0.126036	0.129621
	C1421	C	0.226738	-0.036057	0.132376
	C1422	C	0.218003	-0.035407	0.136621
	C1423	C	0.240354	-0.126339	0.123169
	H1424	H	0.229756	-0.285491	0.129324
	H1425	H	0.214236	-0.283899	0.136952
	H1426	H	0.225695	-0.215687	0.229610
	H1427	H	0.212244	-0.215856	0.206454
	H1428	H	0.190850	-0.375364	0.132883
	H1429	H	0.189997	-0.125354	0.195136
	H1430	H	0.128357	-0.125381	0.195539
	H1431	H	0.252907	-0.376118	0.132631
	H1432	H	0.167035	-0.285294	0.138497
	H1433	H	0.151277	-0.284040	0.134686
	H1434	H	0.152202	-0.215737	0.201465
	H1435	H	0.167752	-0.216699	0.193837
	H1436	H	0.151662	0.035324	0.133019
	H1437	H	0.167389	0.034177	0.136767
	H1438	H	0.167247	-0.535658	0.191631
	H1439	H	0.151732	-0.534496	0.199226
	H1440	H	0.211779	-0.531548	0.207909
	H1441	H	0.225250	-0.531235	0.231138
	H1442	H	0.214739	0.034536	0.138648
	H1443	H	0.230221	0.033282	0.130977
	Al1444	Al	0.190881	-0.000113	0.163993
	Al1445	Al	0.190879	0.249459	0.163914
	Al1446	Al	0.127587	0.250689	0.107831
	Al1447	Al	0.127653	0.000639	0.107847
	O1448	O	0.199603	0.042283	0.185948
	O1449	O	0.191004	0.124911	0.148999
	O1450	O	0.190641	0.374954	0.178886
	O1451	O	0.237768	0.042979	0.251820
	O1452	O	0.181381	0.039303	0.182899
	O1453	O	0.137726	0.041455	0.207538
	O1454	O	0.181580	0.207940	0.183436
	O1455	O	0.181499	0.289240	0.143957
	O1456	O	0.136949	0.293177	0.127801
	O1457	O	0.199763	0.210348	0.185479
	O1458	O	0.200284	0.291450	0.145138
	O1459	O	0.243951	0.289076	0.120630
	O1460	O	0.137941	0.210009	0.208285
	O1461	O	0.181713	0.457565	0.143183
	O1462	O	0.137200	0.461383	0.127022
	O1463	O	0.244092	0.457560	0.120859
	O1464	O	0.200457	0.459795	0.145559
	O1465	O	0.237910	0.211136	0.251414
	O1466	O	0.128498	0.374767	0.211626
	O1467	O	0.253193	0.124542	0.116490
	C1468	C	0.222658	0.215721	0.224856
	C1469	C	0.226483	0.126850	0.231723
	C1470	C	0.222471	0.037836	0.225469
	C1471	C	0.214865	0.037629	0.212437
	C1472	C	0.211066	0.126419	0.205456
	C1473	C	0.215058	0.215333	0.211819
	C1474	C	0.202923	0.126212	0.191124
	C1475	C	0.234635	0.126969	0.246045
	C1476	C	0.177853	0.123758	0.185726
	C1477	C	0.168554	0.123905	0.192024
	C1478	C	0.164224	0.214074	0.195041
	C1479	C	0.155487	0.214926	0.199273
	C1480	C	0.150859	0.125475	0.200514
	C1481	C	0.155193	0.035218	0.197830
	C1482	C	0.163939	0.034359	0.193615
	C1483	C	0.141496	0.125488	0.205848
	C1484	C	0.177867	0.373645	0.141884
	C1485	C	0.168332	0.374125	0.137931
	C1486	C	0.163918	0.464421	0.136204
	C1487	C	0.155025	0.465369	0.134074
	C1488	C	0.150323	0.376065	0.133540
	C1489	C	0.154734	0.285847	0.135365
	C1490	C	0.163627	0.284937	0.137520
	C1491	C	0.140796	0.376900	0.129245
	C1492	C	0.204053	0.375628	0.143392
	C1493	C	0.213411	0.374684	0.138094
	C1494	C	0.217772	0.284587	0.135758
	C1495	C	0.226510	0.284124	0.131530
	C1496	C	0.231101	0.373500	0.129624
	C1497	C	0.226753	0.463556	0.132297
	C1498	C	0.218029	0.464002	0.136564
	C1499	C	0.240385	0.373358	0.123335
	H1500	H	0.229819	0.214656	0.129540
	H1501	H	0.214290	0.215237	0.137154
	H1502	H	0.225645	0.284820	0.229742
	H1503	H	0.212212	0.284178	0.206440
	H1504	H	0.191122	0.124445	0.132836
	H1505	H	0.190224	0.374872	0.195038
	H1506	H	0.128423	0.374624	0.195607
	H1507	H	0.252720	0.124340	0.132477
	H1508	H	0.166940	0.214795	0.138820
	H1509	H	0.151198	0.216236	0.135069
	H1510	H	0.152215	0.284586	0.201550
	H1511	H	0.167740	0.283208	0.193908
	H1512	H	0.151713	0.535785	0.132777
	H1513	H	0.167456	0.534018	0.136509
	H1514	H	0.167204	-0.035637	0.191306
	H1515	H	0.151666	-0.034007	0.198903
	H1516	H	0.211858	-0.031484	0.207546
	H1517	H	0.225319	-0.031097	0.230810
	H1518	H	0.214715	0.533424	0.138698
	H1519	H	0.230202	0.533169	0.130866
	Al1520	Al	0.184066	-0.496682	0.336051
	Al1521	Al	0.184127	-0.246308	0.336158
	Al1522	Al	0.128459	-0.249472	0.226650
	Al1523	Al	0.128401	-0.500447	0.226492
	O1524	O	0.193289	-0.455029	0.356769
	O1525	O	0.184383	-0.371486	0.321117
	O1526	O	0.184092	-0.121435	0.351011
	O1527	O	0.237803	-0.458008	0.373338
	O1528	O	0.174533	-0.456644	0.354208
	O1529	O	0.130861	-0.455045	0.378838
	O1530	O	0.174695	-0.288226	0.354731
	O1531	O	0.175296	-0.206361	0.314519
	O1532	O	0.137161	-0.208174	0.248604
	O1533	O	0.193503	-0.286617	0.356252
	O1534	O	0.193451	-0.205241	0.316821
	O1535	O	0.236996	-0.207301	0.291577
	O1536	O	0.131018	-0.286667	0.379405
	O1537	O	0.175415	-0.038208	0.314013
	O1538	O	0.137279	-0.040050	0.248122
	O1539	O	0.237221	-0.038999	0.292276
	O1540	O	0.193542	-0.036561	0.317042
	O1541	O	0.238045	-0.289698	0.372554
	O1542	O	0.121811	-0.121577	0.383334
	O1543	O	0.246490	-0.371954	0.288433
	C1544	C	0.220222	-0.282910	0.365058
	C1545	C	0.224665	-0.372906	0.366856
	C1546	C	0.219998	-0.462586	0.366206
	C1547	C	0.211116	-0.461950	0.363915
	C1548	C	0.206676	-0.371940	0.362249
	C1549	C	0.211346	-0.282355	0.362798
	C1550	C	0.197145	-0.371155	0.358199
	C1551	C	0.234188	-0.373577	0.371194
	C1552	C	0.170928	-0.372298	0.356434
	C1553	C	0.161557	-0.371936	0.361668
	C1554	C	0.157201	-0.282083	0.364131
	C1555	C	0.148444	-0.281606	0.368328
	C1556	C	0.143869	-0.371058	0.370142
	C1557	C	0.148227	-0.460995	0.367367
	C1558	C	0.156964	-0.461439	0.363191
	C1559	C	0.134578	-0.370842	0.376506
	C1560	C	0.172139	-0.122474	0.308835
	C1561	C	0.163981	-0.122963	0.294514
	C1562	C	0.160207	-0.034148	0.287338
	C1563	C	0.152597	-0.034612	0.274385
	C1564	C	0.148546	-0.123808	0.268350
	C1565	C	0.152329	-0.212637	0.275408
	C1566	C	0.159949	-0.212212	0.288352
	C1567	C	0.140414	-0.123833	0.253966
	C1568	C	0.197133	-0.120878	0.314480
	C1569	C	0.206419	-0.121052	0.308160
	C1570	C	0.210741	-0.211012	0.305256
	C1571	C	0.219468	-0.211675	0.300872
	C1572	C	0.224085	-0.122344	0.299455
	C1573	C	0.219727	-0.032327	0.301921
	C1574	C	0.210997	-0.031597	0.306277
	C1575	C	0.233440	-0.122902	0.294032
	H1576	H	0.222751	-0.281379	0.298754
	H1577	H	0.207257	-0.280190	0.306569
	H1578	H	0.223748	-0.213254	0.365304
	H1579	H	0.208007	-0.212146	0.361397
	H1580	H	0.184900	-0.370647	0.305014
	H1581	H	0.184197	-0.121370	0.367116
	H1582	H	0.122189	-0.121098	0.367384
	H1583	H	0.246496	-0.372159	0.304520
	H1584	H	0.162799	-0.281052	0.293851
	H1585	H	0.149302	-0.282020	0.270743
	H1586	H	0.145167	-0.211804	0.370428
	H1587	H	0.160713	-0.212875	0.362863
	H1588	H	0.149766	0.034158	0.268914
	H1589	H	0.163228	0.035283	0.292007
	H1590	H	0.160248	-0.531148	0.361150
	H1591	H	0.144749	-0.530235	0.368717
	H1592	H	0.207582	-0.531522	0.363316
	H1593	H	0.223339	-0.532709	0.367391
	H1594	H	0.207730	0.038104	0.308417
	H1595	H	0.223241	0.036743	0.300575
	Al1596	Al	0.184072	0.003209	0.336083
	Al1597	Al	0.184131	0.253972	0.336230
	Al1598	Al	0.128447	0.250340	0.226567
	Al1599	Al	0.128445	-0.000417	0.226511
	O1600	O	0.193316	0.045384	0.356718
	O1601	O	0.184328	0.128605	0.321179
	O1602	O	0.184055	0.378795	0.351141
	O1603	O	0.237820	0.042677	0.373192
	O1604	O	0.174519	0.043244	0.354150
	O1605	O	0.130859	0.045129	0.378741
	O1606	O	0.174720	0.211445	0.354754
	O1607	O	0.175235	0.293640	0.314673
	O1608	O	0.137075	0.292137	0.248744
	O1609	O	0.193492	0.213691	0.356117
	O1610	O	0.193414	0.295537	0.316617
	O1611	O	0.237079	0.293336	0.291685
	O1612	O	0.131015	0.213575	0.379254
	O1613	O	0.175421	0.461781	0.313989
	O1614	O	0.137232	0.459961	0.248227
	O1615	O	0.237241	0.461677	0.292252
	O1616	O	0.193594	0.463949	0.317131
	O1617	O	0.238000	0.210764	0.372894
	O1618	O	0.121828	0.378510	0.383323
	O1619	O	0.246525	0.128214	0.288422
	C1620	C	0.220214	0.217679	0.365033
	C1621	C	0.224660	0.127594	0.366801
	C1622	C	0.219978	0.038251	0.366144
	C1623	C	0.211110	0.038797	0.363906
	C1624	C	0.206661	0.128959	0.362198
	C1625	C	0.211338	0.218255	0.362791
	C1626	C	0.197161	0.129417	0.358127
	C1627	C	0.234156	0.126821	0.371229
	C1628	C	0.170931	0.127602	0.356463
	C1629	C	0.161559	0.128241	0.361692
	C1630	C	0.157208	0.218187	0.364242
	C1631	C	0.148472	0.218571	0.368436
	C1632	C	0.143866	0.129337	0.370138
	C1633	C	0.148192	0.039640	0.367230
	C1634	C	0.156937	0.039120	0.362970
	C1635	C	0.134585	0.129229	0.376490
	C1636	C	0.172112	0.377298	0.308762
	C1637	C	0.163984	0.376960	0.294419
	C1638	C	0.160231	0.465651	0.287141
	C1639	C	0.152619	0.465423	0.274120
	C1640	C	0.148535	0.376357	0.268191
	C1641	C	0.152295	0.287542	0.275403
	C1642	C	0.159914	0.287762	0.288391
	C1643	C	0.140366	0.376177	0.253970
	C1644	C	0.197127	0.379770	0.314216
	C1645	C	0.206430	0.379294	0.307904
	C1646	C	0.210757	0.289385	0.305120
	C1647	C	0.219508	0.288793	0.300879
	C1648	C	0.224113	0.378038	0.299402
	C1649	C	0.219778	0.467984	0.301951
	C1650	C	0.211027	0.468634	0.306164
	C1651	C	0.233475	0.377603	0.293984
	H1652	H	0.222784	0.218939	0.298747
	H1653	H	0.207268	0.220062	0.306439
	H1654	H	0.223721	0.287424	0.365399
	H1655	H	0.207972	0.288463	0.361407
	H1656	H	0.184635	0.128473	0.305143
	H1657	H	0.184105	0.379125	0.367240
	H1658	H	0.122349	0.379107	0.367237
	H1659	H	0.246647	0.127941	0.304475
	H1660	H	0.162698	0.218574	0.293992
	H1661	H	0.149238	0.218391	0.270694
	H1662	H	0.145187	0.288224	0.370550
	H1663	H	0.160668	0.287676	0.363023
	H1664	H	0.149835	0.534216	0.268507
	H1665	H	0.163298	0.534961	0.291721
	H1666	H	0.160239	-0.030451	0.360722
	H1667	H	0.144704	-0.029631	0.368399
	H1668	H	0.207615	-0.030995	0.363472
	H1669	H	0.223338	-0.031917	0.367470
	H1670	H	0.207748	0.538512	0.308305
	H1671	H	0.223256	0.537261	0.300629
	Al1672	Al	0.184870	-0.497617	0.454689
	Al1673	Al	0.184864	-0.247755	0.454850
	Al1674	Al	0.121557	-0.246836	0.398298
	Al1675	Al	0.121575	-0.496151	0.398367
	O1676	O	0.194327	-0.456276	0.474388
	O1677	O	0.184777	-0.372731	0.439724
	O1678	O	0.184959	-0.122869	0.469934
	O1679	O	0.238849	-0.458406	0.491506
	O1680	O	0.175544	-0.457879	0.474262
	O1681	O	0.131538	-0.455876	0.497398
	O1682	O	0.175742	-0.289752	0.474864
	O1683	O	0.175272	-0.207970	0.435795
	O1684	O	0.130749	-0.204858	0.418924
	O1685	O	0.194495	-0.287773	0.473949
	O1686	O	0.194023	-0.205652	0.434904
	O1687	O	0.238047	-0.207422	0.411711
	O1688	O	0.131728	-0.287637	0.498077
	O1689	O	0.175474	-0.039744	0.435159
	O1690	O	0.130962	-0.036471	0.418357
	O1691	O	0.238186	-0.039018	0.412291
	O1692	O	0.194265	-0.037373	0.435519
	O1693	O	0.239008	-0.290386	0.490802
	O1694	O	0.122331	-0.122835	0.502436
	O1695	O	0.247490	-0.372344	0.407522
	C1696	C	0.221234	-0.283710	0.483287
	C1697	C	0.225655	-0.374033	0.485189
	C1698	C	0.220973	-0.463492	0.484495
	C1699	C	0.212094	-0.462933	0.482133
	C1700	C	0.207655	-0.372594	0.480381
	C1701	C	0.212343	-0.283030	0.480901
	C1702	C	0.198160	-0.372140	0.476011
	C1703	C	0.235184	-0.374385	0.489415
	C1704	C	0.171947	-0.373648	0.476862
	C1705	C	0.162560	-0.373081	0.482548
	C1706	C	0.158153	-0.282976	0.484906
	C1707	C	0.149347	-0.282602	0.488485
	C1708	C	0.144701	-0.372187	0.489894
	C1709	C	0.149110	-0.462170	0.487456
	C1710	C	0.157911	-0.462532	0.483860
	C1711	C	0.135309	-0.371838	0.495455
	C1712	C	0.171629	-0.123601	0.433657
	C1713	C	0.162117	-0.123035	0.429248
	C1714	C	0.157680	-0.032850	0.427460
	C1715	C	0.148797	-0.032334	0.425132
	C1716	C	0.144114	-0.121564	0.424499
	C1717	C	0.148550	-0.211774	0.426274
	C1718	C	0.157435	-0.212327	0.428599
	C1719	C	0.134599	-0.120870	0.420410
	C1720	C	0.197805	-0.121616	0.432900
	C1721	C	0.207210	-0.122427	0.427356
	C1722	C	0.211597	-0.212541	0.424796
	C1723	C	0.220418	-0.213130	0.421202
	C1724	C	0.225048	-0.123449	0.420007
	C1725	C	0.220656	-0.033399	0.422519
	C1726	C	0.211851	-0.032717	0.426091
	C1727	C	0.234437	-0.123277	0.414428
	H1728	H	0.223700	-0.283487	0.419237
	H1729	H	0.208090	-0.282325	0.425561
	H1730	H	0.224754	-0.213902	0.483621
	H1731	H	0.209002	-0.212851	0.479476
	H1732	H	0.184697	-0.372655	0.423615
	H1733	H	0.185112	-0.123048	0.486048
	H1734	H	0.122220	-0.122882	0.486274
	H1735	H	0.247624	-0.372376	0.423698
	H1736	H	0.160767	-0.282488	0.429903
	H1737	H	0.145040	-0.281320	0.425807
	H1738	H	0.146043	-0.212523	0.490254
	H1739	H	0.161645	-0.213169	0.483899
	H1740	H	0.145467	0.037834	0.423728
	H1741	H	0.161193	0.036789	0.427797
	H1742	H	0.161202	-0.532782	0.482067
	H1743	H	0.145614	-0.532219	0.488388
	H1744	H	0.208607	-0.532868	0.481656
	H1745	H	0.224333	-0.533834	0.485787
	H1746	H	0.208569	0.037730	0.427829
	H1747	H	0.224131	0.036474	0.421590
	Al1748	Al	0.184889	0.002572	0.454951
	Al1749	Al	0.184863	0.252345	0.454806
	Al1750	Al	0.121526	0.253302	0.398290
	Al1751	Al	0.121568	0.003690	0.398317
	O1752	O	0.194318	0.044795	0.474554
	O1753	O	0.184778	0.127188	0.439791
	O1754	O	0.184906	0.377008	0.469812
	O1755	O	0.238812	0.041495	0.491445
	O1756	O	0.175530	0.042309	0.474414
	O1757	O	0.131574	0.044277	0.497548
	O1758	O	0.175702	0.210729	0.474798
	O1759	O	0.175261	0.291957	0.435625
	O1760	O	0.130718	0.295594	0.418990
	O1761	O	0.194464	0.212980	0.473975
	O1762	O	0.194085	0.294061	0.434806
	O1763	O	0.238108	0.292742	0.412089
	O1764	O	0.131705	0.212772	0.498016
	O1765	O	0.175459	0.460369	0.434960
	O1766	O	0.130923	0.463828	0.418531
	O1767	O	0.238226	0.460998	0.412484
	O1768	O	0.194184	0.462270	0.435244
	O1769	O	0.239005	0.209814	0.490740
	O1770	O	0.122274	0.377396	0.502405
	O1771	O	0.247502	0.127127	0.407589
	C1772	C	0.221222	0.216846	0.483252
	C1773	C	0.225644	0.126612	0.485139
	C1774	C	0.220957	0.037263	0.484556
	C1775	C	0.212073	0.038226	0.482188
	C1776	C	0.207653	0.128502	0.480366
	C1777	C	0.212342	0.217918	0.480879
	C1778	C	0.198130	0.128749	0.476037
	C1779	C	0.235164	0.125818	0.489396
	C1780	C	0.171939	0.126606	0.476882
	C1781	C	0.162547	0.127202	0.482521
	C1782	C	0.158136	0.217423	0.484797
	C1783	C	0.149329	0.217844	0.488358
	C1784	C	0.144724	0.128111	0.489914
	C1785	C	0.149123	0.037914	0.487591
	C1786	C	0.157920	0.037631	0.484005
	C1787	C	0.135328	0.128402	0.495539
	C1788	C	0.171625	0.376309	0.433501
	C1789	C	0.162101	0.376838	0.429223
	C1790	C	0.157671	0.467001	0.427366
	C1791	C	0.148789	0.467859	0.425125
	C1792	C	0.144093	0.378603	0.424636
	C1793	C	0.148524	0.288511	0.426398
	C1794	C	0.157408	0.287557	0.428627
	C1795	C	0.134571	0.379515	0.420510
	C1796	C	0.197831	0.378302	0.432769
	C1797	C	0.207220	0.378255	0.427204
	C1798	C	0.211639	0.288152	0.424849
	C1799	C	0.220446	0.287712	0.421365
	C1800	C	0.225084	0.377289	0.420084
	C1801	C	0.220679	0.467394	0.422502
	C1802	C	0.211871	0.467843	0.426017
	C1803	C	0.234484	0.377004	0.414491
	H1804	H	0.223757	0.217590	0.419597
	H1805	H	0.208180	0.217956	0.425848
	H1806	H	0.224767	0.286484	0.483591
	H1807	H	0.209027	0.288232	0.479359
	H1808	H	0.184798	0.127099	0.423790
	H1809	H	0.184806	0.377511	0.485963
	H1810	H	0.122265	0.377153	0.486304
	H1811	H	0.247633	0.127654	0.423706
	H1812	H	0.160747	0.217380	0.429930
	H1813	H	0.144998	0.219057	0.426029
	H1814	H	0.146002	0.287861	0.490071
	H1815	H	0.161625	0.287145	0.483777
	H1816	H	0.145452	0.538017	0.423710
	H1817	H	0.161206	0.536383	0.427699
	H1818	H	0.161232	-0.032733	0.482369
	H1819	H	0.145646	-0.031848	0.488642
	H1820	H	0.208527	-0.031011	0.481675
	H1821	H	0.224259	-0.032941	0.485829
	H1822	H	0.208562	0.538125	0.427969
	H1823	H	0.224170	0.537066	0.421609
	Al1824	Al	0.185905	-0.497890	0.573067
	Al1825	Al	0.185927	-0.247933	0.572975
	Al1826	Al	0.122416	-0.247618	0.517548
	Al1827	Al	0.122364	-0.498032	0.517368
	O1828	O	0.195338	-0.455890	0.592794
	O1829	O	0.185825	-0.373150	0.558035
	O1830	O	0.186008	-0.122873	0.588066
	O1831	O	0.239897	-0.458584	0.608948
	O1832	O	0.176566	-0.458109	0.592612
	O1833	O	0.132640	-0.456429	0.615926
	O1834	O	0.176770	-0.289943	0.592961
	O1835	O	0.176308	-0.208258	0.553874
	O1836	O	0.131776	-0.205416	0.537389
	O1837	O	0.195502	-0.287734	0.592218
	O1838	O	0.195083	-0.206357	0.553041
	O1839	O	0.239076	-0.208123	0.530022
	O1840	O	0.132773	-0.288101	0.616266
	O1841	O	0.176528	-0.039847	0.553279
	O1842	O	0.131989	-0.037139	0.536647
	O1843	O	0.239298	-0.039887	0.530777
	O1844	O	0.195254	-0.038193	0.553501
	O1845	O	0.240024	-0.290293	0.608665
	O1846	O	0.123316	-0.123125	0.620699
	O1847	O	0.248564	-0.373038	0.525609
	C1848	C	0.222257	-0.283407	0.601164
	C1849	C	0.226699	-0.373611	0.602904
	C1850	C	0.222030	-0.463255	0.602337
	C1851	C	0.213131	-0.462848	0.600206
	C1852	C	0.208683	-0.372628	0.598481
	C1853	C	0.213371	-0.283074	0.599008
	C1854	C	0.199160	-0.371994	0.594282
	C1855	C	0.236222	-0.374374	0.607069
	C1856	C	0.172990	-0.373806	0.595067
	C1857	C	0.163584	-0.373450	0.600643
	C1858	C	0.159192	-0.283305	0.603020
	C1859	C	0.150391	-0.282739	0.606648
	C1860	C	0.145754	-0.372398	0.608078
	C1861	C	0.150149	-0.462698	0.605736
	C1862	C	0.158953	-0.463285	0.602120
	C1863	C	0.136380	-0.372290	0.613781
	C1864	C	0.172673	-0.123749	0.551807
	C1865	C	0.163154	-0.123095	0.547495
	C1866	C	0.158711	-0.032818	0.545800
	C1867	C	0.149823	-0.032421	0.543574
	C1868	C	0.145155	-0.121938	0.542888
	C1869	C	0.149605	-0.212119	0.544631
	C1870	C	0.158488	-0.212595	0.546843
	C1871	C	0.135639	-0.121496	0.538767
	C1872	C	0.198853	-0.122335	0.550990
	C1873	C	0.208249	-0.122378	0.545388
	C1874	C	0.212681	-0.212414	0.543058
	C1875	C	0.221499	-0.213025	0.539511
	C1876	C	0.226127	-0.123204	0.538301
	C1877	C	0.221695	-0.033121	0.540547
	C1878	C	0.212871	-0.032551	0.544054
	C1879	C	0.235508	-0.123879	0.532656
	H1880	H	0.224805	-0.283279	0.537738
	H1881	H	0.209208	-0.282376	0.544112
	H1882	H	0.225763	-0.213723	0.601492
	H1883	H	0.210055	-0.212689	0.597635
	H1884	H	0.185800	-0.373444	0.541882
	H1885	H	0.186141	-0.123127	0.604194
	H1886	H	0.123152	-0.122188	0.604556
	H1887	H	0.248750	-0.372693	0.541685
	H1888	H	0.161860	-0.282536	0.548036
	H1889	H	0.146097	-0.282114	0.544256
	H1890	H	0.147084	-0.212361	0.608360
	H1891	H	0.162680	-0.213289	0.601929
	H1892	H	0.146455	0.037805	0.542337
	H1893	H	0.162218	0.037014	0.546213
	H1894	H	0.162267	-0.533574	0.600282
	H1895	H	0.146656	-0.532530	0.606620
	H1896	H	0.209611	-0.532556	0.599749
	H1897	H	0.225372	-0.533185	0.603500
	H1898	H	0.209578	0.037753	0.545865
	H1899	H	0.225169	0.037047	0.539588
	Al1900	Al	0.185945	0.001989	0.573131
	Al1901	Al	0.185895	0.251812	0.573003
	Al1902	Al	0.122370	0.252474	0.517505
	Al1903	Al	0.122390	0.002210	0.517488
	O1904	O	0.195347	0.043790	0.592930
	O1905	O	0.185828	0.126625	0.558022
	O1906	O	0.186063	0.376923	0.588083
	O1907	O	0.239866	0.041248	0.609147
	O1908	O	0.176620	0.041841	0.592435
	O1909	O	0.132608	0.043350	0.615871
	O1910	O	0.176773	0.210026	0.593176
	O1911	O	0.176302	0.291518	0.553844
	O1912	O	0.131738	0.294241	0.537271
	O1913	O	0.195562	0.212123	0.592042
	O1914	O	0.195081	0.293694	0.552970
	O1915	O	0.239067	0.291615	0.529976
	O1916	O	0.132747	0.211635	0.616042
	O1917	O	0.176468	0.459847	0.553472
	O1918	O	0.131971	0.462499	0.536509
	O1919	O	0.239292	0.460107	0.530734
	O1920	O	0.195225	0.462174	0.553621
	O1921	O	0.240101	0.209359	0.608429
	O1922	O	0.123295	0.376929	0.620645
	O1923	O	0.248498	0.127135	0.525640
	C1924	C	0.222273	0.216534	0.601010
	C1925	C	0.226712	0.126213	0.602925
	C1926	C	0.222045	0.036495	0.602398
	C1927	C	0.213164	0.037098	0.600237
	C1928	C	0.208718	0.127355	0.598420
	C1929	C	0.213377	0.217194	0.598827
	C1930	C	0.199203	0.127800	0.594276
	C1931	C	0.236237	0.125652	0.607019
	C1932	C	0.172996	0.126054	0.595130
	C1933	C	0.163623	0.126150	0.600772
	C1934	C	0.159212	0.216282	0.603154
	C1935	C	0.150392	0.216726	0.606720
	C1936	C	0.145745	0.127100	0.608118
	C1937	C	0.150157	0.036878	0.605837
	C1938	C	0.158977	0.036590	0.602267
	C1939	C	0.136364	0.127263	0.613723
	C1940	C	0.172628	0.375753	0.551886
	C1941	C	0.163110	0.376441	0.547626
	C1942	C	0.158670	0.466628	0.545985
	C1943	C	0.149781	0.467333	0.543747
	C1944	C	0.145107	0.377727	0.542975
	C1945	C	0.149554	0.287543	0.544658
	C1946	C	0.158441	0.286794	0.546867
	C1947	C	0.135608	0.378220	0.538702
	C1948	C	0.198836	0.377884	0.550983
	C1949	C	0.208242	0.377540	0.545506
	C1950	C	0.212644	0.287209	0.543037
	C1951	C	0.221440	0.286694	0.539479
	C1952	C	0.226098	0.376368	0.538204
	C1953	C	0.221686	0.466625	0.540626
	C1954	C	0.212885	0.467177	0.544197
	C1955	C	0.235508	0.376117	0.532656
	H1956	H	0.224762	0.216659	0.537691
	H1957	H	0.209148	0.217514	0.543899
	H1958	H	0.225804	0.286112	0.601299
	H1959	H	0.210021	0.287316	0.597461
	H1960	H	0.185750	0.126173	0.541803
	H1961	H	0.186253	0.377335	0.604134
	H1962	H	0.123015	0.377472	0.604503
	H1963	H	0.248539	0.127330	0.541729
	H1964	H	0.161761	0.216233	0.548105
	H1965	H	0.146023	0.217717	0.544189
	H1966	H	0.147104	0.286991	0.608418
	H1967	H	0.162702	0.286216	0.602119
	H1968	H	0.146454	0.537877	0.542572
	H1969	H	0.162194	0.536281	0.546415
	H1970	H	0.162263	-0.033745	0.600544
	H1971	H	0.146679	-0.032979	0.606806
	H1972	H	0.209669	-0.032793	0.599927
	H1973	H	0.225387	-0.033734	0.603728
	H1974	H	0.209574	0.537182	0.545977
	H1975	H	0.225205	0.536498	0.539756
	Al1976	Al	0.186991	-0.498287	0.691228
	Al1977	Al	0.186965	-0.248373	0.691060
	Al1978	Al	0.123406	-0.248118	0.635777
	Al1979	Al	0.123465	-0.498044	0.635787
	O1980	O	0.196458	-0.456381	0.710782
	O1981	O	0.186862	-0.373560	0.676107
	O1982	O	0.187139	-0.123324	0.706029
	O1983	O	0.240954	-0.458700	0.727405
	O1984	O	0.177648	-0.458226	0.710647
	O1985	O	0.133632	-0.456460	0.733368
	O1986	O	0.177848	-0.289779	0.711251
	O1987	O	0.177412	-0.208572	0.671779
	O1988	O	0.132847	-0.206402	0.655526
	O1989	O	0.196583	-0.288291	0.710167
	O1990	O	0.196144	-0.206973	0.670906
	O1991	O	0.240155	-0.208694	0.647926
	O1992	O	0.133834	-0.287900	0.734291
	O1993	O	0.177568	-0.040284	0.671168
	O1994	O	0.133037	-0.037992	0.654977
	O1995	O	0.240318	-0.040324	0.648424
	O1996	O	0.196335	-0.038540	0.671551
	O1997	O	0.241127	-0.290384	0.726865
	O1998	O	0.124335	-0.123703	0.738584
	O1999	O	0.249583	-0.373916	0.643365
	C2000	C	0.223334	-0.283591	0.719506
	C2001	C	0.227780	-0.373828	0.721070
	C2002	C	0.223109	-0.463367	0.720367
	C2003	C	0.214228	-0.462896	0.718104
	C2004	C	0.209776	-0.372703	0.716416
	C2005	C	0.214443	-0.283050	0.717202
	C2006	C	0.200260	-0.372226	0.712255
	C2007	C	0.237297	-0.374462	0.725313
	C2008	C	0.174054	-0.373726	0.713224
	C2009	C	0.164657	-0.373340	0.718692
	C2010	C	0.160258	-0.283030	0.720994
	C2011	C	0.151448	-0.282610	0.724502
	C2012	C	0.146807	-0.372421	0.725966
	C2013	C	0.151222	-0.462609	0.723635
	C2014	C	0.160027	-0.463014	0.720136
	C2015	C	0.137414	-0.372423	0.731546
	C2016	C	0.173752	-0.124358	0.669775
	C2017	C	0.164229	-0.123814	0.665572
	C2018	C	0.159780	-0.033665	0.663829
	C2019	C	0.150894	-0.033239	0.661687
	C2020	C	0.146213	-0.122829	0.661141
	C2021	C	0.150671	-0.213114	0.662966
	C2022	C	0.159550	-0.213465	0.665067
	C2023	C	0.136687	-0.122310	0.657010
	C2024	C	0.199926	-0.122918	0.668902
	C2025	C	0.209310	-0.123247	0.663337
	C2026	C	0.213726	-0.213457	0.660962
	C2027	C	0.222539	-0.213972	0.657350
	C2028	C	0.227175	-0.124045	0.656013
	C2029	C	0.222774	-0.033940	0.658515
	C2030	C	0.213957	-0.033548	0.662088
	C2031	C	0.236558	-0.124496	0.650469
	H2032	H	0.225838	-0.284257	0.655522
	H2033	H	0.210212	-0.283184	0.661831
	H2034	H	0.226870	-0.213999	0.719948
	H2035	H	0.211074	-0.212908	0.715982
	H2036	H	0.186783	-0.373588	0.660051
	H2037	H	0.187479	-0.122936	0.722200
	H2038	H	0.124181	-0.123974	0.722546
	H2039	H	0.249732	-0.373543	0.659360
	H2040	H	0.162896	-0.283629	0.666310
	H2041	H	0.147161	-0.282841	0.662535
	H2042	H	0.148119	-0.212399	0.726220
	H2043	H	0.163761	-0.213354	0.719943
	H2044	H	0.147548	0.036891	0.660324
	H2045	H	0.163306	0.035888	0.664100
	H2046	H	0.163335	-0.533206	0.718420
	H2047	H	0.147744	-0.532789	0.724645
	H2048	H	0.210739	-0.532859	0.717551
	H2049	H	0.226444	-0.533673	0.721494
	H2050	H	0.210663	0.036781	0.663885
	H2051	H	0.226271	0.035802	0.657583
	Al2052	Al	0.186991	0.001577	0.690906
	Al2053	Al	0.186966	0.251901	0.691118
	Al2054	Al	0.123435	0.251706	0.635652
	Al2055	Al	0.123441	0.001595	0.635918
	O2056	O	0.196428	0.043207	0.710592
	O2057	O	0.186873	0.126449	0.675956
	O2058	O	0.187107	0.376744	0.706232
	O2059	O	0.240913	0.041147	0.727491
	O2060	O	0.177672	0.041485	0.710660
	O2061	O	0.133636	0.043278	0.733577
	O2062	O	0.177811	0.209929	0.711098
	O2063	O	0.177404	0.291703	0.671922
	O2064	O	0.132884	0.293466	0.655330
	O2065	O	0.196549	0.211482	0.710338
	O2066	O	0.196147	0.293576	0.671215
	O2067	O	0.240108	0.291781	0.647689
	O2068	O	0.133780	0.211601	0.734075
	O2069	O	0.177576	0.459840	0.671521
	O2070	O	0.133037	0.461630	0.654841
	O2071	O	0.240268	0.459786	0.648268
	O2072	O	0.196320	0.461826	0.671609
	O2073	O	0.241085	0.209207	0.727072
	O2074	O	0.124400	0.376471	0.738435
	O2075	O	0.249574	0.126214	0.643370
	C2076	C	0.223276	0.215872	0.719616
	C2077	C	0.227747	0.125746	0.721258
	C2078	C	0.223080	0.036067	0.720593
	C2079	C	0.214196	0.036619	0.718273
	C2080	C	0.209731	0.126845	0.716567
	C2081	C	0.214391	0.216388	0.717283
	C2082	C	0.200228	0.127241	0.712293
	C2083	C	0.237259	0.125449	0.725463
	C2084	C	0.174067	0.125647	0.713158
	C2085	C	0.164656	0.125945	0.718808
	C2086	C	0.160232	0.216149	0.720962
	C2087	C	0.151421	0.216722	0.724463
	C2088	C	0.146811	0.127005	0.726067
	C2089	C	0.151219	0.036900	0.723851
	C2090	C	0.160032	0.036228	0.720355
	C2091	C	0.137398	0.127420	0.731557
	C2092	C	0.173738	0.375926	0.669897
	C2093	C	0.164221	0.376328	0.665640
	C2094	C	0.159765	0.466420	0.663934
	C2095	C	0.150877	0.466872	0.661735
	C2096	C	0.146223	0.377191	0.661031
	C2097	C	0.150670	0.287231	0.662830
	C2098	C	0.159560	0.286845	0.665022
	C2099	C	0.136706	0.377466	0.656808
	C2100	C	0.199924	0.377562	0.669124
	C2101	C	0.209297	0.377163	0.663325
	C2102	C	0.213699	0.286941	0.660978
	C2103	C	0.222488	0.286618	0.657309
	C2104	C	0.227128	0.376239	0.655916
	C2105	C	0.222720	0.466416	0.658326
	C2106	C	0.213931	0.466714	0.661945
	C2107	C	0.236512	0.376022	0.650270
	H2108	H	0.225810	0.216448	0.655435
	H2109	H	0.210221	0.217187	0.662017
	H2110	H	0.226780	0.285428	0.720073
	H2111	H	0.211056	0.286607	0.716096
	H2112	H	0.186684	0.126868	0.659782
	H2113	H	0.187333	0.376121	0.722371
	H2114	H	0.124349	0.376575	0.722324
	H2115	H	0.249802	0.126367	0.659484
	H2116	H	0.162900	0.216610	0.666290
	H2117	H	0.147165	0.217282	0.662540
	H2118	H	0.148100	0.286906	0.725999
	H2119	H	0.163703	0.286378	0.719865
	H2120	H	0.147515	0.537258	0.660573
	H2121	H	0.163268	0.536334	0.664332
	H2122	H	0.163340	-0.034136	0.718781
	H2123	H	0.147757	-0.033021	0.724933
	H2124	H	0.210666	-0.033195	0.717807
	H2125	H	0.226449	-0.034121	0.721882
	H2126	H	0.210618	0.536847	0.663780
	H2127	H	0.226186	0.536340	0.657295
	Al2128	Al	0.188021	-0.498561	0.809095
	Al2129	Al	0.188041	-0.248638	0.809138
	Al2130	Al	0.124441	-0.248411	0.753604
	Al2131	Al	0.124485	-0.498452	0.753503
	O2132	O	0.197386	-0.456516	0.828957
	O2133	O	0.187881	-0.373643	0.794028
	O2134	O	0.188071	-0.123634	0.824273
	O2135	O	0.241960	-0.459614	0.845568
	O2136	O	0.178669	-0.458889	0.828552
	O2137	O	0.134654	-0.456483	0.851376
	O2138	O	0.178848	-0.290676	0.829116
	O2139	O	0.178429	-0.209013	0.789955
	O2140	O	0.133846	-0.206069	0.773450
	O2141	O	0.197624	-0.288017	0.828184
	O2142	O	0.197175	-0.206973	0.789143
	O2143	O	0.241226	-0.208949	0.766339
	O2144	O	0.134870	-0.288264	0.852082
	O2145	O	0.178574	-0.040762	0.789408
	O2146	O	0.134095	-0.037911	0.772626
	O2147	O	0.241328	-0.040758	0.766603
	O2148	O	0.197335	-0.038695	0.789633
	O2149	O	0.242160	-0.291359	0.844883
	O2150	O	0.125416	-0.123914	0.856514
	O2151	O	0.250649	-0.374043	0.761746
	C2152	C	0.224315	-0.284269	0.837526
	C2153	C	0.228771	-0.374629	0.839246
	C2154	C	0.224090	-0.464230	0.838516
	C2155	C	0.215200	-0.463537	0.836256
	C2156	C	0.210756	-0.373196	0.834587
	C2157	C	0.215433	-0.283597	0.835259
	C2158	C	0.201232	-0.372544	0.830364
	C2159	C	0.238320	-0.375299	0.843430
	C2160	C	0.175075	-0.374670	0.831058
	C2161	C	0.165694	-0.374101	0.836670
	C2162	C	0.161272	-0.283806	0.838964
	C2163	C	0.152463	-0.283353	0.842467
	C2164	C	0.147829	-0.373036	0.843869
	C2165	C	0.152245	-0.463371	0.841616
	C2166	C	0.161061	-0.463792	0.838123
	C2167	C	0.138451	-0.372509	0.849514
	C2168	C	0.174754	-0.124810	0.787974
	C2169	C	0.165234	-0.124414	0.783691
	C2170	C	0.160784	-0.034283	0.781973
	C2171	C	0.151903	-0.033588	0.779761
	C2172	C	0.147236	-0.123166	0.779130
	C2173	C	0.151684	-0.213244	0.780724
	C2174	C	0.160569	-0.213897	0.782940
	C2175	C	0.137712	-0.122387	0.774832
	C2176	C	0.200941	-0.123019	0.787096
	C2177	C	0.210321	-0.123133	0.781456
	C2178	C	0.214745	-0.213330	0.779178
	C2179	C	0.223548	-0.214059	0.775653
	C2180	C	0.228202	-0.124516	0.774325
	C2181	C	0.223768	-0.034152	0.776545
	C2182	C	0.214963	-0.033470	0.780069
	C2183	C	0.237595	-0.124822	0.768739
	H2184	H	0.226872	-0.284229	0.773904
	H2185	H	0.211265	-0.283401	0.780194
	H2186	H	0.227842	-0.214635	0.837952
	H2187	H	0.212106	-0.213324	0.834079
	H2188	H	0.187545	-0.373391	0.777908
	H2189	H	0.188247	-0.123646	0.840339
	H2190	H	0.125292	-0.124222	0.840448
	H2191	H	0.250763	-0.374604	0.777783
	H2192	H	0.163898	-0.284238	0.784133
	H2193	H	0.148151	-0.282862	0.780231
	H2194	H	0.149140	-0.213010	0.844150
	H2195	H	0.164755	-0.213958	0.837889
	H2196	H	0.148580	0.036702	0.778498
	H2197	H	0.164312	0.035376	0.782383
	H2198	H	0.164369	-0.534107	0.836432
	H2199	H	0.148755	-0.533211	0.842705
	H2200	H	0.211648	-0.533137	0.835838
	H2201	H	0.227410	-0.534541	0.839793
	H2202	H	0.211612	0.036585	0.781800
	H2203	H	0.227249	0.035680	0.775501
	Al2204	Al	0.187986	0.001155	0.809134
	Al2205	Al	0.188032	0.251224	0.809162
	Al2206	Al	0.124453	0.251563	0.753558
	Al2207	Al	0.124487	0.001378	0.753645
	O2208	O	0.197438	0.042829	0.828782
	O2209	O	0.187859	0.126254	0.794083
	O2210	O	0.188132	0.376331	0.824173
	O2211	O	0.241964	0.040425	0.845478
	O2212	O	0.178660	0.041064	0.828661
	O2213	O	0.134652	0.043075	0.851305
	O2214	O	0.178891	0.209357	0.829201
	O2215	O	0.178424	0.291124	0.789993
	O2216	O	0.133884	0.293665	0.773388
	O2217	O	0.197608	0.211251	0.828191
	O2218	O	0.197173	0.293273	0.789118
	O2219	O	0.241167	0.291213	0.766094
	O2220	O	0.134860	0.211246	0.852112
	O2221	O	0.178640	0.459403	0.789241
	O2222	O	0.134049	0.462095	0.772741
	O2223	O	0.241348	0.459541	0.766515
	O2224	O	0.197348	0.461490	0.789766
	O2225	O	0.242148	0.208679	0.844892
	O2226	O	0.125395	0.376197	0.856435
	O2227	O	0.250609	0.126451	0.761818
	C2228	C	0.224365	0.215642	0.837585
	C2229	C	0.228795	0.125285	0.839193
	C2230	C	0.224115	0.035742	0.838404
	C2231	C	0.215227	0.036314	0.836102
	C2232	C	0.210786	0.126657	0.834518
	C2233	C	0.215472	0.216188	0.835304
	C2234	C	0.201284	0.127050	0.830272
	C2235	C	0.238309	0.124743	0.843385
	C2236	C	0.175103	0.125442	0.831243
	C2237	C	0.165705	0.125809	0.836621
	C2238	C	0.161293	0.216020	0.839040
	C2239	C	0.152485	0.216552	0.842526
	C2240	C	0.147843	0.126887	0.843915
	C2241	C	0.152265	0.036574	0.841526
	C2242	C	0.161075	0.036086	0.838047
	C2243	C	0.138447	0.126959	0.849351
	C2244	C	0.174783	0.375558	0.787891
	C2245	C	0.165246	0.376045	0.783745
	C2246	C	0.160806	0.466340	0.781961
	C2247	C	0.151898	0.467002	0.779780
	C2248	C	0.147217	0.377483	0.779244
	C2249	C	0.151676	0.287176	0.780832
	C2250	C	0.160568	0.286481	0.782977
	C2251	C	0.137700	0.377846	0.774847
	C2252	C	0.200942	0.377374	0.787076
	C2253	C	0.210331	0.376909	0.781604
	C2254	C	0.214736	0.286849	0.779110
	C2255	C	0.223532	0.286387	0.775565
	C2256	C	0.228176	0.376140	0.774209
	C2257	C	0.223756	0.466274	0.776537
	C2258	C	0.214950	0.466753	0.780146
	C2259	C	0.237575	0.375494	0.768651
	H2260	H	0.226814	0.216040	0.773868
	H2261	H	0.211240	0.217147	0.780098
	H2262	H	0.227889	0.285245	0.838187
	H2263	H	0.212117	0.286593	0.834255
	H2264	H	0.187671	0.127046	0.777962
	H2265	H	0.188262	0.376375	0.840206
	H2266	H	0.125125	0.375997	0.840405
	H2267	H	0.250733	0.125901	0.777977
	H2268	H	0.163918	0.216022	0.784242
	H2269	H	0.148189	0.217429	0.780452
	H2270	H	0.149165	0.286570	0.844152
	H2271	H	0.164792	0.285756	0.838170
	H2272	H	0.148544	0.537253	0.778575
	H2273	H	0.164308	0.535995	0.782421
	H2274	H	0.164418	-0.034078	0.836414
	H2275	H	0.148770	-0.033313	0.842399
	H2276	H	0.211718	-0.033789	0.835728
	H2277	H	0.227435	-0.034534	0.839717
	H2278	H	0.211655	0.537073	0.781945
	H2279	H	0.227268	0.536173	0.775570
	Al2280	Al	0.189065	-0.498886	0.927064
	Al2281	Al	0.189046	-0.249073	0.927124
	Al2282	Al	0.125541	-0.248683	0.871571
	Al2283	Al	0.125515	-0.498447	0.871543
	O2284	O	0.198486	-0.457081	0.946665
	O2285	O	0.188932	-0.374086	0.912007
	O2286	O	0.189219	-0.123499	0.942041
	O2287	O	0.243004	-0.459784	0.963438
	O2288	O	0.179744	-0.458618	0.946590
	O2289	O	0.135756	-0.457507	0.969959
	O2290	O	0.179862	-0.290502	0.946986
	O2291	O	0.179469	-0.208582	0.907883
	O2292	O	0.134941	-0.206530	0.891364
	O2293	O	0.198631	-0.288935	0.946209
	O2294	O	0.198281	-0.207447	0.907206
	O2295	O	0.242215	-0.209161	0.884035
	O2296	O	0.135887	-0.289258	0.970148
	O2297	O	0.179634	-0.040301	0.907333
	O2298	O	0.135137	-0.038267	0.890585
	O2299	O	0.242396	-0.041046	0.884610
	O2300	O	0.198354	-0.039096	0.907286
	O2301	O	0.243199	-0.291533	0.962928
	O2302	O	0.126464	-0.124065	0.974604
	O2303	O	0.251657	-0.374214	0.879664
	C2304	C	0.225399	-0.284337	0.955254
	C2305	C	0.229833	-0.374566	0.957139
	C2306	C	0.225137	-0.464126	0.956642
	C2307	C	0.216254	-0.463548	0.954421
	C2308	C	0.211824	-0.373395	0.952506
	C2309	C	0.216507	-0.283795	0.953038
	C2310	C	0.202292	-0.373047	0.948213
	C2311	C	0.239359	-0.375419	0.961361
	C2312	C	0.176105	-0.374540	0.949070
	C2313	C	0.166732	-0.374399	0.954695
	C2314	C	0.162310	-0.284333	0.957114
	C2315	C	0.153501	-0.284066	0.960716
	C2316	C	0.148883	-0.373731	0.962040
	C2317	C	0.153318	-0.463738	0.959715
	C2318	C	0.162122	-0.464096	0.956113
	C2319	C	0.139507	-0.373512	0.967751
	C2320	C	0.175823	-0.124368	0.905863
	C2321	C	0.166292	-0.124017	0.901582
	C2322	C	0.161832	-0.033864	0.899927
	C2323	C	0.152949	-0.033134	0.897699
	C2324	C	0.148294	-0.122830	0.896978
	C2325	C	0.152744	-0.212983	0.898728
	C2326	C	0.161626	-0.213557	0.900930
	C2327	C	0.138768	-0.122482	0.892790
	C2328	C	0.202004	-0.123182	0.905049
	C2329	C	0.211379	-0.123523	0.899516
	C2330	C	0.215770	-0.213773	0.897105
	C2331	C	0.224577	-0.214424	0.893463
	C2332	C	0.229237	-0.124920	0.892223
	C2333	C	0.224844	-0.034662	0.894647
	C2334	C	0.216034	-0.033977	0.898267
	C2335	C	0.238617	-0.125058	0.886515
	H2336	H	0.227889	-0.284691	0.891515
	H2337	H	0.212305	-0.283761	0.897994
	H2338	H	0.228918	-0.214530	0.955620
	H2339	H	0.213176	-0.213525	0.951708
	H2340	H	0.188855	-0.373524	0.895826
	H2341	H	0.189357	-0.123661	0.958140
	H2342	H	0.126310	-0.123134	0.958434
	H2343	H	0.251722	-0.374159	0.895727
	H2344	H	0.164964	-0.283856	0.902132
	H2345	H	0.149222	-0.282593	0.898328
	H2346	H	0.150201	-0.213968	0.962586
	H2347	H	0.165775	-0.214360	0.956104
	H2348	H	0.149594	0.037017	0.896457
	H2349	H	0.165345	0.035881	0.900326
	H2350	H	0.165440	-0.534154	0.954319
	H2351	H	0.149850	-0.533573	0.960689
	H2352	H	0.212721	-0.533448	0.954236
	H2353	H	0.228451	-0.534413	0.958168
	H2354	H	0.212714	0.036250	0.900154
	H2355	H	0.228327	0.035097	0.893670
	Al2356	Al	0.189052	0.001543	0.926985
	Al2357	Al	0.189044	0.250958	0.927026
	Al2358	Al	0.125529	0.251210	0.871488
	Al2359	Al	0.125511	0.001181	0.871562
	O2360	O	0.198454	0.043110	0.946667
	O2361	O	0.188920	0.126168	0.911922
	O2362	O	0.189158	0.375886	0.942111
	O2363	O	0.242956	0.040582	0.963815
	O2364	O	0.179730	0.041235	0.946566
	O2365	O	0.135709	0.042501	0.969650
	O2366	O	0.179871	0.209306	0.946948
	O2367	O	0.179476	0.291204	0.907797
	O2368	O	0.134953	0.293397	0.891098
	O2369	O	0.198635	0.211364	0.946157
	O2370	O	0.198226	0.293014	0.907005
	O2371	O	0.242215	0.290791	0.884043
	O2372	O	0.135859	0.210752	0.970321
	O2373	O	0.179590	0.459646	0.907538
	O2374	O	0.135106	0.461817	0.890641
	O2375	O	0.242381	0.459195	0.884582
	O2376	O	0.198383	0.461284	0.907458
	O2377	O	0.243183	0.208793	0.962932
	O2378	O	0.126446	0.376025	0.974774
	O2379	O	0.251652	0.125618	0.879684
	C2380	C	0.225373	0.215496	0.955395
	C2381	C	0.229808	0.125315	0.957274
	C2382	C	0.225142	0.035688	0.956564
	C2383	C	0.216260	0.036261	0.954291
	C2384	C	0.211806	0.126465	0.952618
	C2385	C	0.216487	0.215988	0.953131
	C2386	C	0.202286	0.127028	0.948274
	C2387	C	0.239327	0.124908	0.961527
	C2388	C	0.176104	0.125247	0.949101
	C2389	C	0.166721	0.125501	0.954704
	C2390	C	0.162299	0.215458	0.956988
	C2391	C	0.153492	0.216051	0.960609
	C2392	C	0.148859	0.126471	0.962088
	C2393	C	0.153277	0.036455	0.959763
	C2394	C	0.162078	0.036001	0.956158
	C2395	C	0.139480	0.126688	0.967722
	C2396	C	0.175795	0.375446	0.905880
	C2397	C	0.166291	0.375909	0.901685
	C2398	C	0.161842	0.466107	0.900010
	C2399	C	0.152959	0.466701	0.897682
	C2400	C	0.148300	0.377006	0.896881
	C2401	C	0.152749	0.286731	0.898532
	C2402	C	0.161631	0.286133	0.900855
	C2403	C	0.138784	0.377424	0.892664
	C2404	C	0.201976	0.377123	0.904999
	C2405	C	0.211376	0.376746	0.899342
	C2406	C	0.215778	0.286525	0.896992
	C2407	C	0.224578	0.285833	0.893461
	C2408	C	0.229221	0.375529	0.892173
	C2409	C	0.224830	0.465727	0.894615
	C2410	C	0.216028	0.466288	0.898167
	C2411	C	0.238614	0.375145	0.886573
	H2412	H	0.227862	0.215579	0.891563
	H2413	H	0.212259	0.217028	0.897867
	H2414	H	0.228896	0.285116	0.955774
	H2415	H	0.213130	0.286435	0.951856
	H2416	H	0.188625	0.126796	0.895867
	H2417	H	0.189391	0.376135	0.958164
	H2418	H	0.126289	0.376333	0.958656
	H2419	H	0.251970	0.125629	0.895736
	H2420	H	0.164990	0.215935	0.902039
	H2421	H	0.149223	0.216945	0.897974
	H2422	H	0.150191	0.286241	0.962382
	H2423	H	0.165789	0.285010	0.956014
	H2424	H	0.149613	0.536904	0.896473
	H2425	H	0.165357	0.535927	0.900509
	H2426	H	0.165388	-0.034107	0.954506
	H2427	H	0.149794	-0.033528	0.960885
	H2428	H	0.212750	-0.033697	0.953907
	H2429	H	0.228477	-0.034574	0.957898
	H2430	H	0.212749	0.536505	0.899969
	H2431	H	0.228349	0.535431	0.893614
	Al2432	Al	0.315896	-0.500231	0.039024
	Al2433	Al	0.315915	-0.250903	0.038797
	Al2434	Al	0.252580	-0.249365	-0.017250
	Al2435	Al	0.252558	-0.499205	-0.017310
	O2436	O	0.324588	-0.458556	0.060948
	O2437	O	0.315982	-0.375527	0.023921
	O2438	O	0.315653	-0.125462	0.053902
	O2439	O	0.362708	-0.457229	0.126965
	O2440	O	0.306430	-0.460632	0.057876
	O2441	O	0.262747	-0.458993	0.082544
	O2442	O	0.306598	-0.292303	0.058282
	O2443	O	0.306510	-0.210408	0.018787
	O2444	O	0.261984	-0.206997	0.002518
	O2445	O	0.324784	-0.290347	0.060296
	O2446	O	0.325288	-0.208816	0.020062
	O2447	O	0.368951	-0.211546	-0.004336
	O2448	O	0.262933	-0.290622	0.083326
	O2449	O	0.306713	-0.042138	0.018294
	O2450	O	0.262197	-0.038575	0.001768
	O2451	O	0.369195	-0.043245	-0.003531
	O2452	O	0.325462	-0.040578	0.020720
	O2453	O	0.362901	-0.289055	0.126393
	O2454	O	0.253463	-0.125541	0.086518
	O2455	O	0.378191	-0.376427	-0.008176
	C2456	C	0.347712	-0.284775	0.099477
	C2457	C	0.351440	-0.373711	0.106793
	C2458	C	0.347343	-0.462962	0.100897
	C2459	C	0.339751	-0.463153	0.087823
	C2460	C	0.336038	-0.374129	0.080427
	C2461	C	0.340114	-0.284932	0.086406
	C2462	C	0.327915	-0.374197	0.066056
	C2463	C	0.359598	-0.373265	0.121100
	C2464	C	0.302879	-0.376052	0.060669
	C2465	C	0.293574	-0.376018	0.066998
	C2466	C	0.289195	-0.286190	0.069776
	C2467	C	0.280468	-0.285781	0.074033
	C2468	C	0.275877	-0.375115	0.075532
	C2469	C	0.280269	-0.464882	0.073167
	C2470	C	0.289008	-0.465519	0.068927
	C2471	C	0.266531	-0.374959	0.080917
	C2472	C	0.302870	-0.126081	0.016912
	C2473	C	0.293328	-0.125236	0.012782
	C2474	C	0.288899	-0.034885	0.011408
	C2475	C	0.280013	-0.033924	0.009230
	C2476	C	0.275334	-0.123432	0.008358
	C2477	C	0.279757	-0.213669	0.010094
	C2478	C	0.288638	-0.214609	0.012282
	C2479	C	0.265809	-0.122956	0.003994
	C2480	C	0.329060	-0.124709	0.018530
	C2481	C	0.338433	-0.125257	0.013275
	C2482	C	0.342783	-0.215335	0.010863
	C2483	C	0.351529	-0.215939	0.006701
	C2484	C	0.356134	-0.126511	0.004982
	C2485	C	0.351799	-0.036456	0.007725
	C2486	C	0.343050	-0.035842	0.011866
	C2487	C	0.365419	-0.127106	-0.001359
	H2488	H	0.354810	-0.285934	0.004681
	H2489	H	0.339286	-0.284933	0.012228
	H2490	H	0.350804	-0.215581	0.104000
	H2491	H	0.337378	-0.216038	0.080636
	H2492	H	0.316007	-0.375726	0.007900
	H2493	H	0.315332	-0.125779	0.070058
	H2494	H	0.253491	-0.125471	0.070516
	H2495	H	0.377764	-0.377205	0.007882
	H2496	H	0.291969	-0.285086	0.013373
	H2497	H	0.276226	-0.283246	0.009509
	H2498	H	0.277158	-0.216051	0.076231
	H2499	H	0.292660	-0.216693	0.068482
	H2500	H	0.276683	0.036261	0.007911
	H2501	H	0.292421	0.034797	0.011829
	H2502	H	0.292323	-0.535098	0.066964
	H2503	H	0.276793	-0.534237	0.074634
	H2504	H	0.336693	-0.532459	0.083186
	H2505	H	0.350155	-0.531861	0.106623
	H2506	H	0.339771	0.034078	0.014094
	H2507	H	0.355301	0.033130	0.006402
	Al2508	Al	0.315925	-0.000098	0.038963
	Al2509	Al	0.315883	0.249260	0.038850
	Al2510	Al	0.252550	0.250624	-0.017266
	Al2511	Al	0.252570	0.000700	-0.017272
	O2512	O	0.324627	0.041071	0.060907
	O2513	O	0.315973	0.124612	0.023946
	O2514	O	0.315628	0.374170	0.053919
	O2515	O	0.362691	0.042934	0.126976
	O2516	O	0.306397	0.039513	0.057875
	O2517	O	0.262788	0.041220	0.082640
	O2518	O	0.306584	0.207977	0.058400
	O2519	O	0.306488	0.289663	0.018776
	O2520	O	0.262024	0.292566	0.002432
	O2521	O	0.324743	0.209446	0.060459
	O2522	O	0.325252	0.291128	0.020117
	O2523	O	0.368924	0.288011	-0.004327
	O2524	O	0.262932	0.209656	0.083199
	O2525	O	0.306673	0.458018	0.018448
	O2526	O	0.262142	0.460646	0.001925
	O2527	O	0.369118	0.456398	-0.003739
	O2528	O	0.325442	0.459222	0.020884
	O2529	O	0.362912	0.211125	0.126347
	O2530	O	0.253471	0.374313	0.086556
	O2531	O	0.378223	0.123716	-0.008285
	C2532	C	0.347712	0.215561	0.099535
	C2533	C	0.351455	0.126654	0.106716
	C2534	C	0.347395	0.037294	0.100709
	C2535	C	0.339799	0.036837	0.087657
	C2536	C	0.336049	0.125770	0.080452
	C2537	C	0.340110	0.215187	0.086472
	C2538	C	0.327878	0.125462	0.066233
	C2539	C	0.359576	0.126990	0.121117
	C2540	C	0.302852	0.123939	0.060682
	C2541	C	0.293553	0.124055	0.067068
	C2542	C	0.289225	0.214050	0.070051
	C2543	C	0.280483	0.214674	0.074291
	C2544	C	0.275884	0.125166	0.075559
	C2545	C	0.280224	0.035046	0.072956
	C2546	C	0.288958	0.034479	0.068757
	C2547	C	0.266508	0.125299	0.080811
	C2548	C	0.302838	0.374008	0.016941
	C2549	C	0.293321	0.374674	0.012932
	C2550	C	0.288890	0.464925	0.011217
	C2551	C	0.280021	0.465769	0.008997
	C2552	C	0.275336	0.376258	0.008282
	C2553	C	0.279763	0.286006	0.010072
	C2554	C	0.288637	0.285257	0.012311
	C2555	C	0.265828	0.376680	0.003994
	C2556	C	0.329030	0.375119	0.018449
	C2557	C	0.338383	0.374610	0.013144
	C2558	C	0.342722	0.284511	0.010646
	C2559	C	0.351471	0.283742	0.006440
	C2560	C	0.356085	0.373013	0.004743
	C2561	C	0.351757	0.463060	0.007533
	C2562	C	0.343009	0.463870	0.011761
	C2563	C	0.365371	0.372464	-0.001518
	H2564	H	0.354726	0.213674	0.004237
	H2565	H	0.339219	0.215378	0.011829
	H2566	H	0.350758	0.284879	0.104221
	H2567	H	0.337283	0.284006	0.080993
	H2568	H	0.315909	0.123981	0.007781
	H2569	H	0.315140	0.374299	0.069970
	H2570	H	0.253460	0.373926	0.070447
	H2571	H	0.377869	0.123883	0.007786
	H2572	H	0.292001	0.215195	0.013524
	H2573	H	0.276215	0.216583	0.009636
	H2574	H	0.277187	0.284418	0.076416
	H2575	H	0.292732	0.283559	0.068820
	H2576	H	0.276687	0.536032	0.007698
	H2577	H	0.292422	0.534493	0.011546
	H2578	H	0.292227	-0.035486	0.066540
	H2579	H	0.276727	-0.034328	0.074074
	H2580	H	0.336732	-0.032217	0.083148
	H2581	H	0.350186	-0.031493	0.106346
	H2582	H	0.339724	0.533605	0.013906
	H2583	H	0.355256	0.532289	0.006293
	Al2584	Al	0.309063	-0.497265	0.211169
	Al2585	Al	0.309111	-0.246448	0.210833
	Al2586	Al	0.253392	-0.250342	0.101508
	Al2587	Al	0.253397	-0.500868	0.101413
	O2588	O	0.318275	-0.454362	0.231678
	O2589	O	0.309303	-0.372155	0.196025
	O2590	O	0.308985	-0.122316	0.225790
	O2591	O	0.362801	-0.458337	0.248279
	O2592	O	0.299529	-0.456531	0.229245
	O2593	O	0.255919	-0.454610	0.254027
	O2594	O	0.299755	-0.288251	0.229880
	O2595	O	0.300258	-0.207195	0.189211
	O2596	O	0.262117	-0.209013	0.123472
	O2597	O	0.318513	-0.286055	0.230821
	O2598	O	0.318404	-0.204914	0.191206
	O2599	O	0.362057	-0.206812	0.166713
	O2600	O	0.256110	-0.286162	0.254652
	O2601	O	0.300373	-0.039237	0.188968
	O2602	O	0.262225	-0.040902	0.123075
	O2603	O	0.362288	-0.038509	0.167371
	O2604	O	0.318610	-0.036449	0.192123
	O2605	O	0.363011	-0.290077	0.247460
	O2606	O	0.246831	-0.122071	0.258515
	O2607	O	0.371543	-0.372019	0.163386
	C2608	C	0.345239	-0.283019	0.239669
	C2609	C	0.349666	-0.373171	0.241681
	C2610	C	0.344972	-0.462395	0.241233
	C2611	C	0.336085	-0.461483	0.238995
	C2612	C	0.331666	-0.371260	0.237076
	C2613	C	0.336357	-0.282056	0.237428
	C2614	C	0.322132	-0.370586	0.233027
	C2615	C	0.359173	-0.374069	0.246078
	C2616	C	0.295959	-0.372149	0.231574
	C2617	C	0.286583	-0.371343	0.236673
	C2618	C	0.282215	-0.281600	0.239145
	C2619	C	0.273476	-0.281236	0.243417
	C2620	C	0.268926	-0.370664	0.245296
	C2621	C	0.273272	-0.460513	0.242462
	C2622	C	0.282001	-0.460783	0.238138
	C2623	C	0.259629	-0.370384	0.251701
	C2624	C	0.297088	-0.123211	0.183589
	C2625	C	0.288961	-0.123499	0.169284
	C2626	C	0.285172	-0.034601	0.162338
	C2627	C	0.277567	-0.034840	0.149294
	C2628	C	0.273562	-0.124009	0.142954
	C2629	C	0.277322	-0.212841	0.150017
	C2630	C	0.284921	-0.212463	0.163058
	C2631	C	0.265382	-0.124699	0.128794
	C2632	C	0.322137	-0.120612	0.189045
	C2633	C	0.331437	-0.121141	0.182771
	C2634	C	0.335762	-0.211179	0.179712
	C2635	C	0.344507	-0.211719	0.175539
	C2636	C	0.349127	-0.122134	0.174308
	C2637	C	0.344785	-0.032091	0.177042
	C2638	C	0.336046	-0.031565	0.181221
	C2639	C	0.358474	-0.122258	0.168987
	H2640	H	0.347798	-0.281468	0.173225
	H2641	H	0.332263	-0.280539	0.180736
	H2642	H	0.348778	-0.213601	0.239868
	H2643	H	0.333052	-0.211983	0.235801
	H2644	H	0.309682	-0.372593	0.180060
	H2645	H	0.308854	-0.122202	0.241860
	H2646	H	0.247270	-0.121728	0.242463
	H2647	H	0.371769	-0.371764	0.179282
	H2648	H	0.287718	-0.281380	0.168624
	H2649	H	0.274255	-0.281995	0.145440
	H2650	H	0.270168	-0.211586	0.245495
	H2651	H	0.285679	-0.212295	0.237932
	H2652	H	0.274689	0.034119	0.143999
	H2653	H	0.288154	0.034447	0.167287
	H2654	H	0.285319	-0.530540	0.236094
	H2655	H	0.269825	-0.530356	0.243687
	H2656	H	0.332539	-0.530834	0.238709
	H2657	H	0.348284	-0.532644	0.242746
	H2658	H	0.332758	0.038169	0.183352
	H2659	H	0.348296	0.037295	0.175927
	Al2660	Al	0.309086	0.002470	0.210877
	Al2661	Al	0.309089	0.253351	0.211025
	Al2662	Al	0.253430	0.249806	0.101558
	Al2663	Al	0.253401	-0.000736	0.101455
	O2664	O	0.318250	0.044748	0.231658
	O2665	O	0.309300	0.127589	0.195925
	O2666	O	0.309033	0.378059	0.226116
	O2667	O	0.362815	0.041514	0.248203
	O2668	O	0.299542	0.042690	0.229111
	O2669	O	0.255898	0.044929	0.253937
	O2670	O	0.299711	0.210993	0.229792
	O2671	O	0.300256	0.292979	0.189392
	O2672	O	0.262161	0.291476	0.123427
	O2673	O	0.318477	0.213071	0.230980
	O2674	O	0.318381	0.294395	0.191459
	O2675	O	0.361983	0.292549	0.166323
	O2676	O	0.256087	0.213481	0.254643
	O2677	O	0.300395	0.461289	0.189118
	O2678	O	0.262309	0.459564	0.123006
	O2679	O	0.362192	0.461021	0.167111
	O2680	O	0.318558	0.462984	0.192210
	O2681	O	0.363025	0.209590	0.247405
	O2682	O	0.246863	0.378303	0.258597
	O2683	O	0.371530	0.128159	0.163386
	C2684	C	0.345208	0.216166	0.239809
	C2685	C	0.349655	0.126010	0.241692
	C2686	C	0.344957	0.036720	0.241085
	C2687	C	0.336079	0.037657	0.238851
	C2688	C	0.331630	0.127760	0.237082
	C2689	C	0.336323	0.217040	0.237562
	C2690	C	0.322109	0.128659	0.233038
	C2691	C	0.359176	0.125659	0.245987
	C2692	C	0.295958	0.126910	0.231470
	C2693	C	0.286586	0.127597	0.236841
	C2694	C	0.282231	0.217613	0.239413
	C2695	C	0.273496	0.217882	0.243651
	C2696	C	0.268914	0.128515	0.245345
	C2697	C	0.273247	0.038663	0.242459
	C2698	C	0.281981	0.038233	0.238223
	C2699	C	0.259619	0.129060	0.251713
	C2700	C	0.297150	0.377072	0.183614
	C2701	C	0.289035	0.376485	0.169229
	C2702	C	0.285217	0.465341	0.162351
	C2703	C	0.277624	0.465189	0.149295
	C2704	C	0.273634	0.375865	0.142931
	C2705	C	0.277455	0.286929	0.149852
	C2706	C	0.285056	0.287047	0.162895
	C2707	C	0.265471	0.375765	0.128637
	C2708	C	0.322098	0.378881	0.189300
	C2709	C	0.331382	0.378668	0.182771
	C2710	C	0.335684	0.288643	0.179662
	C2711	C	0.344416	0.288003	0.175324
	C2712	C	0.349038	0.377414	0.173983
	C2713	C	0.344722	0.467576	0.176750
	C2714	C	0.335982	0.468106	0.181118
	C2715	C	0.358425	0.376947	0.168748
	H2716	H	0.347694	0.218190	0.172970
	H2717	H	0.332201	0.219206	0.180945
	H2718	H	0.348754	0.285693	0.240100
	H2719	H	0.332996	0.287187	0.236235
	H2720	H	0.309664	0.128200	0.179784
	H2721	H	0.309184	0.377789	0.242173
	H2722	H	0.247178	0.378386	0.242600
	H2723	H	0.371441	0.127528	0.179440
	H2724	H	0.287888	0.217941	0.168186
	H2725	H	0.274461	0.217930	0.144827
	H2726	H	0.270214	0.287473	0.245816
	H2727	H	0.285705	0.286830	0.238199
	H2728	H	0.274818	0.534416	0.143884
	H2729	H	0.288234	0.534571	0.167194
	H2730	H	0.285271	-0.031145	0.236087
	H2731	H	0.269766	-0.030408	0.243602
	H2732	H	0.332540	-0.032004	0.238515
	H2733	H	0.348297	-0.033338	0.242344
	H2734	H	0.332723	0.537843	0.183469
	H2735	H	0.348232	0.536689	0.175647
	Al2736	Al	0.309909	-0.497652	0.329864
	Al2737	Al	0.309912	-0.248024	0.329837
	Al2738	Al	0.246560	-0.247283	0.273478
	Al2739	Al	0.246602	-0.496357	0.273467
	O2740	O	0.319314	-0.455745	0.349770
	O2741	O	0.309799	-0.372750	0.314753
	O2742	O	0.309963	-0.122826	0.344989
	O2743	O	0.363806	-0.459751	0.366521
	O2744	O	0.300523	-0.457997	0.349234
	O2745	O	0.256586	-0.455705	0.372650
	O2746	O	0.300754	-0.289909	0.350055
	O2747	O	0.300292	-0.208422	0.310670
	O2748	O	0.255782	-0.205080	0.294045
	O2749	O	0.319542	-0.287504	0.348981
	O2750	O	0.319083	-0.206188	0.309968
	O2751	O	0.363060	-0.208711	0.286935
	O2752	O	0.256742	-0.287379	0.372958
	O2753	O	0.300463	-0.040136	0.310258
	O2754	O	0.255956	-0.036713	0.293733
	O2755	O	0.363194	-0.040362	0.287214
	O2756	O	0.319223	-0.038045	0.310448
	O2757	O	0.364009	-0.291361	0.365889
	O2758	O	0.247299	-0.122618	0.377450
	O2759	O	0.372496	-0.373439	0.282361
	C2760	C	0.346259	-0.284391	0.358249
	C2761	C	0.350660	-0.374754	0.360157
	C2762	C	0.345973	-0.464122	0.359681
	C2763	C	0.337087	-0.462941	0.357469
	C2764	C	0.332678	-0.372472	0.355599
	C2765	C	0.337365	-0.283155	0.356037
	C2766	C	0.323166	-0.371889	0.351296
	C2767	C	0.360164	-0.375347	0.364468
	C2768	C	0.296957	-0.373822	0.351996
	C2769	C	0.287563	-0.373272	0.357658
	C2770	C	0.283178	-0.283118	0.360049
	C2771	C	0.274383	-0.282573	0.363589
	C2772	C	0.269730	-0.372096	0.364901
	C2773	C	0.274117	-0.462250	0.362534
	C2774	C	0.282922	-0.462897	0.358975
	C2775	C	0.260346	-0.371733	0.370583
	C2776	C	0.296637	-0.124065	0.308675
	C2777	C	0.287120	-0.123438	0.304313
	C2778	C	0.282696	-0.033115	0.302548
	C2779	C	0.273814	-0.032194	0.300259
	C2780	C	0.269132	-0.121652	0.299667
	C2781	C	0.273538	-0.211935	0.301495
	C2782	C	0.282423	-0.212735	0.303823
	C2783	C	0.259618	-0.121153	0.295624
	C2784	C	0.322849	-0.122143	0.308000
	C2785	C	0.332233	-0.122700	0.302496
	C2786	C	0.336619	-0.212872	0.299895
	C2787	C	0.345418	-0.213421	0.296232
	C2788	C	0.350070	-0.123929	0.295128
	C2789	C	0.345676	-0.033846	0.297615
	C2790	C	0.336874	-0.033223	0.301282
	C2791	C	0.359435	-0.124365	0.289367
	H2792	H	0.348714	-0.283596	0.294210
	H2793	H	0.333152	-0.282867	0.300785
	H2794	H	0.349800	-0.214764	0.358408
	H2795	H	0.334062	-0.212639	0.354553
	H2796	H	0.309640	-0.372745	0.298630
	H2797	H	0.310071	-0.122976	0.361023
	H2798	H	0.247220	-0.123100	0.361340
	H2799	H	0.372633	-0.373445	0.298489
	H2800	H	0.285747	-0.282997	0.305059
	H2801	H	0.270015	-0.281542	0.301113
	H2802	H	0.271089	-0.212147	0.365362
	H2803	H	0.286677	-0.213502	0.359017
	H2804	H	0.270504	0.037846	0.298793
	H2805	H	0.286214	0.036739	0.302791
	H2806	H	0.286209	-0.533162	0.357093
	H2807	H	0.270611	-0.532118	0.363433
	H2808	H	0.333527	-0.532799	0.357046
	H2809	H	0.349292	-0.534852	0.360952
	H2810	H	0.333571	0.037077	0.303241
	H2811	H	0.349146	0.036349	0.296688
	Al2812	Al	0.309902	0.002130	0.329914
	Al2813	Al	0.309909	0.252748	0.329948
	Al2814	Al	0.246614	0.252731	0.273468
	Al2815	Al	0.246583	0.003417	0.273506
	O2816	O	0.319303	0.043962	0.349610
	O2817	O	0.309803	0.127320	0.314854
	O2818	O	0.309955	0.377417	0.344977
	O2819	O	0.363831	0.040001	0.366504
	O2820	O	0.300518	0.042151	0.349195
	O2821	O	0.256550	0.044521	0.372458
	O2822	O	0.300717	0.210556	0.349890
	O2823	O	0.300307	0.291992	0.310635
	O2824	O	0.255791	0.295310	0.294180
	O2825	O	0.319450	0.212524	0.349139
	O2826	O	0.319085	0.294107	0.310071
	O2827	O	0.363087	0.291559	0.286693
	O2828	O	0.256749	0.212678	0.373001
	O2829	O	0.300523	0.460368	0.310097
	O2830	O	0.256013	0.463772	0.293525
	O2831	O	0.363254	0.460013	0.287301
	O2832	O	0.319300	0.462554	0.310708
	O2833	O	0.364007	0.208725	0.365699
	O2834	O	0.247361	0.377355	0.377523
	O2835	O	0.372531	0.126456	0.282392
	C2836	C	0.346233	0.215663	0.358398
	C2837	C	0.350638	0.125157	0.360242
	C2838	C	0.345930	0.035784	0.359796
	C2839	C	0.337040	0.036585	0.357535
	C2840	C	0.332632	0.127097	0.355560
	C2841	C	0.337338	0.216615	0.356122
	C2842	C	0.323111	0.128116	0.351216
	C2843	C	0.360172	0.124545	0.364372
	C2844	C	0.296965	0.126466	0.351885
	C2845	C	0.287574	0.126903	0.357557
	C2846	C	0.283184	0.217012	0.360037
	C2847	C	0.274383	0.217677	0.363634
	C2848	C	0.269744	0.128078	0.364938
	C2849	C	0.274139	0.037932	0.362505
	C2850	C	0.282941	0.037296	0.358909
	C2851	C	0.260328	0.128401	0.370469
	C2852	C	0.296664	0.376464	0.308630
	C2853	C	0.287149	0.377425	0.304244
	C2854	C	0.282698	0.467570	0.302604
	C2855	C	0.273818	0.468335	0.300345
	C2856	C	0.269155	0.378715	0.299703
	C2857	C	0.273601	0.288640	0.301265
	C2858	C	0.282477	0.288057	0.303511
	C2859	C	0.259628	0.379274	0.295611
	C2860	C	0.322883	0.378183	0.308081
	C2861	C	0.332263	0.377517	0.302493
	C2862	C	0.336657	0.287336	0.299946
	C2863	C	0.345455	0.286563	0.296311
	C2864	C	0.350105	0.376228	0.294933
	C2865	C	0.345717	0.466532	0.297516
	C2866	C	0.336921	0.467103	0.301210
	C2867	C	0.359483	0.375895	0.289355
	H2868	H	0.348723	0.216355	0.294450
	H2869	H	0.333151	0.217609	0.300810
	H2870	H	0.349772	0.285086	0.358590
	H2871	H	0.334028	0.286851	0.354642
	H2872	H	0.309586	0.126927	0.298707
	H2873	H	0.309963	0.377774	0.360986
	H2874	H	0.247346	0.377252	0.361474
	H2875	H	0.372764	0.127258	0.298454
	H2876	H	0.285804	0.217599	0.304628
	H2877	H	0.270088	0.219069	0.300704
	H2878	H	0.271086	0.287858	0.365567
	H2879	H	0.286667	0.286926	0.359112
	H2880	H	0.270487	0.538384	0.298977
	H2881	H	0.286237	0.537213	0.303011
	H2882	H	0.286238	-0.032695	0.357089
	H2883	H	0.270655	-0.031955	0.363448
	H2884	H	0.333531	-0.033233	0.357132
	H2885	H	0.349246	-0.034851	0.361124
	H2886	H	0.333621	0.537359	0.303088
	H2887	H	0.349227	0.536120	0.296581
	Al2888	Al	0.310898	-0.498245	0.448063
	Al2889	Al	0.310941	-0.248263	0.448106
	Al2890	Al	0.247421	-0.247755	0.392450
	Al2891	Al	0.247395	-0.497580	0.392510
	O2892	O	0.320333	-0.456401	0.467954
	O2893	O	0.310838	-0.373369	0.433076
	O2894	O	0.311061	-0.123327	0.463155
	O2895	O	0.364869	-0.459789	0.484172
	O2896	O	0.301593	-0.458345	0.467561
	O2897	O	0.257565	-0.456132	0.490499
	O2898	O	0.301735	-0.289751	0.467929
	O2899	O	0.301327	-0.208611	0.428990
	O2900	O	0.256778	-0.205753	0.412541
	O2901	O	0.320545	-0.288300	0.467272
	O2902	O	0.320052	-0.206752	0.427923
	O2903	O	0.364056	-0.209530	0.405206
	O2904	O	0.257754	-0.287804	0.491033
	O2905	O	0.301567	-0.040364	0.428196
	O2906	O	0.256988	-0.037403	0.411575
	O2907	O	0.364288	-0.041350	0.405783
	O2908	O	0.320246	-0.038329	0.428497
	O2909	O	0.365055	-0.291655	0.483675
	O2910	O	0.248364	-0.122959	0.495444
	O2911	O	0.373530	-0.374584	0.400647
	C2912	C	0.347273	-0.284634	0.476091
	C2913	C	0.351711	-0.374928	0.478004
	C2914	C	0.347022	-0.464154	0.477559
	C2915	C	0.338139	-0.463277	0.475375
	C2916	C	0.333700	-0.373038	0.473458
	C2917	C	0.338388	-0.283666	0.473885
	C2918	C	0.324180	-0.372593	0.469327
	C2919	C	0.361222	-0.375550	0.482153
	C2920	C	0.297986	-0.374098	0.470065
	C2921	C	0.288606	-0.373866	0.475664
	C2922	C	0.284199	-0.283621	0.478000
	C2923	C	0.275390	-0.282906	0.481525
	C2924	C	0.270744	-0.372630	0.482848
	C2925	C	0.275148	-0.463006	0.480472
	C2926	C	0.283966	-0.463546	0.476963
	C2927	C	0.261341	-0.372208	0.488483
	C2928	C	0.297700	-0.124259	0.426829
	C2929	C	0.288177	-0.123674	0.422575
	C2930	C	0.283731	-0.033442	0.420951
	C2931	C	0.274839	-0.032714	0.418697
	C2932	C	0.270161	-0.122145	0.417968
	C2933	C	0.274609	-0.212491	0.419669
	C2934	C	0.283497	-0.213166	0.421923
	C2935	C	0.260636	-0.121822	0.413740
	C2936	C	0.323832	-0.122747	0.425935
	C2937	C	0.333226	-0.123184	0.420429
	C2938	C	0.337614	-0.213398	0.417997
	C2939	C	0.346427	-0.214096	0.414549
	C2940	C	0.351073	-0.124497	0.413280
	C2941	C	0.346703	-0.034291	0.415805
	C2942	C	0.337887	-0.033685	0.419259
	C2943	C	0.360485	-0.125144	0.407801
	H2944	H	0.349707	-0.284081	0.412649
	H2945	H	0.334105	-0.283348	0.418757
	H2946	H	0.350818	-0.214856	0.476353
	H2947	H	0.335058	-0.213281	0.472552
	H2948	H	0.310597	-0.373392	0.416960
	H2949	H	0.311226	-0.123598	0.479177
	H2950	H	0.248320	-0.123272	0.479347
	H2951	H	0.373781	-0.374650	0.416805
	H2952	H	0.286821	-0.283356	0.423327
	H2953	H	0.271090	-0.282216	0.419317
	H2954	H	0.272101	-0.212455	0.483306
	H2955	H	0.287696	-0.213837	0.477064
	H2956	H	0.271481	0.037396	0.417541
	H2957	H	0.287238	0.036205	0.421496
	H2958	H	0.287263	-0.533602	0.475159
	H2959	H	0.271652	-0.532599	0.481391
	H2960	H	0.334608	-0.533016	0.475254
	H2961	H	0.350325	-0.534793	0.478983
	H2962	H	0.334599	0.036411	0.421066
	H2963	H	0.350183	0.035637	0.414919
	Al2964	Al	0.310933	0.001672	0.448071
	Al2965	Al	0.310966	0.251708	0.448124
	Al2966	Al	0.247418	0.252396	0.392561
	Al2967	Al	0.247380	0.002378	0.392391
	O2968	O	0.320305	0.043415	0.467930
	O2969	O	0.310835	0.126643	0.433013
	O2970	O	0.311040	0.376826	0.463174
	O2971	O	0.364858	0.040008	0.484321
	O2972	O	0.301579	0.041186	0.467518
	O2973	O	0.257592	0.044151	0.490617
	O2974	O	0.301774	0.209456	0.468117
	O2975	O	0.301328	0.291495	0.428945
	O2976	O	0.256879	0.294407	0.412094
	O2977	O	0.320517	0.211773	0.467261
	O2978	O	0.320073	0.293339	0.428093
	O2979	O	0.364036	0.290399	0.405005
	O2980	O	0.257737	0.212095	0.491118
	O2981	O	0.301526	0.459958	0.428341
	O2982	O	0.257004	0.462579	0.411665
	O2983	O	0.364249	0.458736	0.405484
	O2984	O	0.320221	0.461700	0.428514
	O2985	O	0.365048	0.208513	0.483607
	O2986	O	0.248301	0.377206	0.495606
	O2987	O	0.373529	0.125976	0.400584
	C2988	C	0.347282	0.215168	0.475964
	C2989	C	0.351709	0.124781	0.477867
	C2990	C	0.347016	0.035278	0.477344
	C2991	C	0.338131	0.036072	0.475154
	C2992	C	0.333696	0.126515	0.473406
	C2993	C	0.338398	0.216101	0.473793
	C2994	C	0.324152	0.127516	0.469342
	C2995	C	0.361214	0.124478	0.482171
	C2996	C	0.298011	0.125626	0.470160
	C2997	C	0.288618	0.126082	0.475735
	C2998	C	0.284243	0.216359	0.478096
	C2999	C	0.275424	0.217045	0.481582
	C3000	C	0.270755	0.127656	0.482950
	C3001	C	0.275124	0.037431	0.480460
	C3002	C	0.283946	0.036619	0.476978
	C3003	C	0.261363	0.128041	0.488528
	C3004	C	0.297697	0.375859	0.426838
	C3005	C	0.288172	0.376526	0.422636
	C3006	C	0.283729	0.466816	0.420933
	C3007	C	0.274862	0.467581	0.418619
	C3008	C	0.270189	0.378038	0.417862
	C3009	C	0.274634	0.287712	0.419581
	C3010	C	0.283514	0.286896	0.421899
	C3011	C	0.260668	0.378524	0.413644
	C3012	C	0.323829	0.377373	0.426016
	C3013	C	0.333232	0.376903	0.420529
	C3014	C	0.337613	0.286576	0.418042
	C3015	C	0.346440	0.285764	0.414563
	C3016	C	0.351088	0.375410	0.413292
	C3017	C	0.346709	0.465794	0.415761
	C3018	C	0.337887	0.466586	0.419277
	C3019	C	0.360468	0.374692	0.407619
	H3020	H	0.349727	0.215315	0.412675
	H3021	H	0.334107	0.216892	0.418863
	H3022	H	0.350839	0.284831	0.476271
	H3023	H	0.335076	0.286634	0.472461
	H3024	H	0.310628	0.126026	0.416902
	H3025	H	0.311292	0.377099	0.479233
	H3026	H	0.248065	0.376938	0.479398
	H3027	H	0.373754	0.125871	0.416633
	H3028	H	0.286871	0.216710	0.423172
	H3029	H	0.271082	0.218178	0.419159
	H3030	H	0.272157	0.287465	0.483376
	H3031	H	0.287760	0.286282	0.477212
	H3032	H	0.271541	0.538009	0.417454
	H3033	H	0.287251	0.536469	0.421431
	H3034	H	0.287228	-0.033805	0.475225
	H3035	H	0.271626	-0.032358	0.481404
	H3036	H	0.334578	-0.033612	0.474909
	H3037	H	0.350339	-0.035370	0.478703
	H3038	H	0.334595	0.536916	0.421036
	H3039	H	0.350226	0.535649	0.414869
	Al3040	Al	0.311943	-0.499283	0.565910
	Al3041	Al	0.311942	-0.249046	0.565902
	Al3042	Al	0.248415	-0.248066	0.510461
	Al3043	Al	0.248431	-0.497839	0.510637
	O3044	O	0.321318	-0.456948	0.585741
	O3045	O	0.311799	-0.374085	0.550833
	O3046	O	0.312051	-0.123898	0.580936
	O3047	O	0.365871	-0.460358	0.602141
	O3048	O	0.302552	-0.459614	0.585186
	O3049	O	0.258629	-0.457320	0.608352
	O3050	O	0.302819	-0.291338	0.586042
	O3051	O	0.302336	-0.209655	0.546765
	O3052	O	0.257844	-0.205711	0.530167
	O3053	O	0.321532	-0.288711	0.584991
	O3054	O	0.320999	-0.206785	0.545643
	O3055	O	0.365095	-0.209566	0.522784
	O3056	O	0.258774	-0.288918	0.608834
	O3057	O	0.302559	-0.041373	0.545990
	O3058	O	0.258059	-0.037257	0.529566
	O3059	O	0.365256	-0.041490	0.523472
	O3060	O	0.321273	-0.038537	0.546551
	O3061	O	0.366101	-0.292219	0.601556
	O3062	O	0.249343	-0.123890	0.613267
	O3063	O	0.374575	-0.374636	0.518465
	C3064	C	0.348292	-0.285025	0.593951
	C3065	C	0.352721	-0.375400	0.595841
	C3066	C	0.348023	-0.464815	0.595351
	C3067	C	0.339134	-0.463764	0.593118
	C3068	C	0.334697	-0.373474	0.591297
	C3069	C	0.339398	-0.284066	0.591710
	C3070	C	0.325183	-0.373142	0.587033
	C3071	C	0.362247	-0.376008	0.600081
	C3072	C	0.299020	-0.375193	0.587872
	C3073	C	0.289620	-0.374461	0.593466
	C3074	C	0.285216	-0.284308	0.595827
	C3075	C	0.276418	-0.283807	0.599420
	C3076	C	0.271786	-0.373485	0.600722
	C3077	C	0.276183	-0.463668	0.598307
	C3078	C	0.284984	-0.464198	0.594706
	C3079	C	0.262394	-0.373180	0.606313
	C3080	C	0.298713	-0.125210	0.544692
	C3081	C	0.289193	-0.124442	0.540551
	C3082	C	0.284769	-0.033925	0.538692
	C3083	C	0.275885	-0.032981	0.536451
	C3084	C	0.271192	-0.122471	0.536002
	C3085	C	0.275626	-0.212971	0.537726
	C3086	C	0.284502	-0.214002	0.539958
	C3087	C	0.261685	-0.121801	0.531710
	C3088	C	0.324836	-0.123011	0.543850
	C3089	C	0.334230	-0.123874	0.538333
	C3090	C	0.338621	-0.214156	0.535935
	C3091	C	0.347442	-0.214669	0.532397
	C3092	C	0.352098	-0.125134	0.531011
	C3093	C	0.347723	-0.034943	0.533467
	C3094	C	0.338902	-0.034461	0.537067
	C3095	C	0.361480	-0.125572	0.525400
	H3096	H	0.350724	-0.284991	0.530591
	H3097	H	0.335127	-0.284164	0.536886
	H3098	H	0.351838	-0.215431	0.594278
	H3099	H	0.336091	-0.213693	0.590351
	H3100	H	0.311516	-0.373740	0.534747
	H3101	H	0.312194	-0.123603	0.596998
	H3102	H	0.249270	-0.124295	0.597102
	H3103	H	0.374916	-0.375495	0.534583
	H3104	H	0.287858	-0.284200	0.541316
	H3105	H	0.272109	-0.283022	0.537269
	H3106	H	0.273136	-0.213479	0.601331
	H3107	H	0.288711	-0.214367	0.594931
	H3108	H	0.272537	0.037453	0.534989
	H3109	H	0.288309	0.035623	0.539041
	H3110	H	0.288295	-0.534299	0.592873
	H3111	H	0.272706	-0.533438	0.599281
	H3112	H	0.335606	-0.533484	0.592834
	H3113	H	0.351329	-0.535414	0.596825
	H3114	H	0.335630	0.035851	0.538892
	H3115	H	0.351197	0.035055	0.532510
	Al3116	Al	0.311936	0.001153	0.565928
	Al3117	Al	0.311946	0.250970	0.565814
	Al3118	Al	0.248442	0.251979	0.510570
	Al3119	Al	0.248423	0.001966	0.510565
	O3120	O	0.321371	0.043639	0.585646
	O3121	O	0.311847	0.125904	0.550737
	O3122	O	0.312054	0.375855	0.580947
	O3123	O	0.365893	0.039987	0.602226
	O3124	O	0.302582	0.040712	0.585317
	O3125	O	0.258623	0.042991	0.608245
	O3126	O	0.302836	0.208683	0.585995
	O3127	O	0.302369	0.290448	0.546610
	O3128	O	0.257830	0.294248	0.530285
	O3129	O	0.321602	0.211837	0.584844
	O3130	O	0.321078	0.292863	0.545764
	O3131	O	0.365104	0.290331	0.522887
	O3132	O	0.258779	0.211240	0.608867
	O3133	O	0.302590	0.458876	0.545933
	O3134	O	0.258062	0.462553	0.529690
	O3135	O	0.365321	0.458790	0.523600
	O3136	O	0.321305	0.461208	0.546599
	O3137	O	0.366115	0.207979	0.601619
	O3138	O	0.249374	0.376057	0.613172
	O3139	O	0.374546	0.125191	0.518548
	C3140	C	0.348307	0.215561	0.594258
	C3141	C	0.352731	0.125106	0.595992
	C3142	C	0.348044	0.035618	0.595330
	C3143	C	0.339165	0.036571	0.593045
	C3144	C	0.334737	0.126879	0.591307
	C3145	C	0.339431	0.216437	0.591989
	C3146	C	0.325221	0.127525	0.587056
	C3147	C	0.362259	0.124303	0.600129
	C3148	C	0.299023	0.125061	0.587921
	C3149	C	0.289630	0.125732	0.593635
	C3150	C	0.285205	0.215945	0.595830
	C3151	C	0.276395	0.216334	0.599343
	C3152	C	0.271773	0.126636	0.600755
	C3153	C	0.276170	0.036613	0.598254
	C3154	C	0.284978	0.036218	0.594764
	C3155	C	0.262383	0.127110	0.606271
	C3156	C	0.298743	0.374926	0.544488
	C3157	C	0.289226	0.375630	0.540413
	C3158	C	0.284782	0.465854	0.538680
	C3159	C	0.275902	0.466729	0.536509
	C3160	C	0.271212	0.377252	0.535898
	C3161	C	0.275650	0.286881	0.537683
	C3162	C	0.284540	0.286052	0.539903
	C3163	C	0.261702	0.378067	0.531750
	C3164	C	0.324876	0.376781	0.543802
	C3165	C	0.334265	0.376508	0.538112
	C3166	C	0.338670	0.286239	0.535798
	C3167	C	0.347476	0.285628	0.532333
	C3168	C	0.352126	0.375267	0.530943
	C3169	C	0.347717	0.465499	0.533244
	C3170	C	0.338915	0.466123	0.536719
	C3171	C	0.361534	0.374653	0.525506
	H3172	H	0.350786	0.215390	0.530673
	H3173	H	0.335175	0.216426	0.536853
	H3174	H	0.351848	0.285162	0.594738
	H3175	H	0.336098	0.286831	0.590863
	H3176	H	0.311746	0.126308	0.534614
	H3177	H	0.312380	0.375575	0.597033
	H3178	H	0.249382	0.376128	0.597080
	H3179	H	0.374589	0.125321	0.534638
	H3180	H	0.287867	0.215640	0.541163
	H3181	H	0.272101	0.217594	0.537305
	H3182	H	0.273070	0.286539	0.601116
	H3183	H	0.288681	0.285913	0.594937
	H3184	H	0.272590	0.537090	0.535186
	H3185	H	0.288321	0.535482	0.539025
	H3186	H	0.288283	-0.034052	0.593055
	H3187	H	0.272677	-0.033412	0.599169
	H3188	H	0.335613	-0.032848	0.592784
	H3189	H	0.351369	-0.034738	0.596764
	H3190	H	0.335603	0.536282	0.538501
	H3191	H	0.351238	0.535129	0.532305
	Al3192	Al	0.312989	-0.499448	0.683846
	Al3193	Al	0.313018	-0.249324	0.683902
	Al3194	Al	0.249428	-0.248962	0.628365
	Al3195	Al	0.249445	-0.498718	0.628284
	O3196	O	0.322426	-0.457377	0.703579
	O3197	O	0.312913	-0.374284	0.668826
	O3198	O	0.313118	-0.124024	0.699005
	O3199	O	0.366979	-0.460192	0.720454
	O3200	O	0.303643	-0.459182	0.703172
	O3201	O	0.259698	-0.457167	0.726588
	O3202	O	0.303848	-0.290956	0.703790
	O3203	O	0.303436	-0.209250	0.664739
	O3204	O	0.258883	-0.207280	0.647966
	O3205	O	0.322624	-0.289396	0.703000
	O3206	O	0.322170	-0.207494	0.664001
	O3207	O	0.366164	-0.210202	0.640683
	O3208	O	0.259851	-0.288974	0.727252
	O3209	O	0.303577	-0.040821	0.664144
	O3210	O	0.259098	-0.038893	0.647269
	O3211	O	0.366320	-0.041988	0.641149
	O3212	O	0.322318	-0.039103	0.664272
	O3213	O	0.367159	-0.291855	0.719668
	O3214	O	0.250391	-0.123796	0.731679
	O3215	O	0.375605	-0.374846	0.636222
	C3216	C	0.349365	-0.285276	0.712240
	C3217	C	0.353801	-0.375437	0.714048
	C3218	C	0.349118	-0.464827	0.713467
	C3219	C	0.340227	-0.464350	0.711153
	C3220	C	0.335791	-0.374154	0.709329
	C3221	C	0.340468	-0.284647	0.709953
	C3222	C	0.326290	-0.373550	0.704989
	C3223	C	0.363313	-0.375831	0.718284
	C3224	C	0.300069	-0.374840	0.705846
	C3225	C	0.290696	-0.374656	0.711576
	C3226	C	0.286300	-0.284645	0.714205
	C3227	C	0.277493	-0.283872	0.717826
	C3228	C	0.272853	-0.373461	0.719113
	C3229	C	0.277256	-0.463562	0.716533
	C3230	C	0.286056	-0.464223	0.712879
	C3231	C	0.263461	-0.373174	0.724587
	C3232	C	0.299756	-0.125179	0.662666
	C3233	C	0.290245	-0.124773	0.658445
	C3234	C	0.285789	-0.034461	0.656694
	C3235	C	0.276903	-0.033779	0.654424
	C3236	C	0.272234	-0.123518	0.653795
	C3237	C	0.276697	-0.213711	0.655585
	C3238	C	0.285580	-0.214380	0.657877
	C3239	C	0.262722	-0.123436	0.649440
	C3240	C	0.325933	-0.123551	0.661835
	C3241	C	0.335325	-0.124047	0.656213
	C3242	C	0.339713	-0.214223	0.653706
	C3243	C	0.348537	-0.214911	0.650125
	C3244	C	0.353180	-0.125441	0.648854
	C3245	C	0.348799	-0.035213	0.651440
	C3246	C	0.339989	-0.034603	0.655003
	C3247	C	0.362556	-0.126032	0.643315
	H3248	H	0.351803	-0.285053	0.648143
	H3249	H	0.336205	-0.283896	0.654444
	H3250	H	0.352860	-0.215518	0.712724
	H3251	H	0.337138	-0.214361	0.708671
	H3252	H	0.312938	-0.374293	0.652729
	H3253	H	0.313199	-0.123411	0.715006
	H3254	H	0.250234	-0.124383	0.715577
	H3255	H	0.375662	-0.375201	0.652334
	H3256	H	0.288939	-0.284623	0.659165
	H3257	H	0.273184	-0.283560	0.655066
	H3258	H	0.274210	-0.213928	0.719785
	H3259	H	0.289810	-0.214740	0.713423
	H3260	H	0.273562	0.036441	0.652968
	H3261	H	0.289317	0.035187	0.656980
	H3262	H	0.289357	-0.534330	0.711032
	H3263	H	0.273755	-0.533533	0.717414
	H3264	H	0.336705	-0.534112	0.710856
	H3265	H	0.352435	-0.535319	0.714971
	H3266	H	0.336697	0.035937	0.656769
	H3267	H	0.352287	0.034606	0.650459
	Al3268	Al	0.312998	0.000614	0.683971
	Al3269	Al	0.313022	0.250716	0.683981
	Al3270	Al	0.249448	0.251533	0.628342
	Al3271	Al	0.249472	0.001587	0.628243
	O3272	O	0.322454	0.042602	0.703573
	O3273	O	0.312922	0.125531	0.668916
	O3274	O	0.313138	0.375691	0.698878
	O3275	O	0.367016	0.039747	0.720132
	O3276	O	0.303685	0.040682	0.703548
	O3277	O	0.259644	0.042912	0.726603
	O3278	O	0.303835	0.209033	0.703942
	O3279	O	0.303374	0.290423	0.664738
	O3280	O	0.258865	0.292860	0.648149
	O3281	O	0.322668	0.211137	0.702930
	O3282	O	0.322145	0.292875	0.663734
	O3283	O	0.366156	0.289667	0.640683
	O3284	O	0.259815	0.211279	0.727091
	O3285	O	0.303604	0.458608	0.663988
	O3286	O	0.259022	0.461070	0.647491
	O3287	O	0.366402	0.457820	0.641351
	O3288	O	0.322360	0.461053	0.664385
	O3289	O	0.367183	0.208094	0.719777
	O3290	O	0.250417	0.376249	0.731558
	O3291	O	0.375657	0.125053	0.636355
	C3292	C	0.349414	0.214851	0.711974
	C3293	C	0.353831	0.124564	0.713960
	C3294	C	0.349143	0.035054	0.713557
	C3295	C	0.340266	0.035833	0.711260
	C3296	C	0.335844	0.126153	0.709245
	C3297	C	0.340529	0.215609	0.709703
	C3298	C	0.326307	0.126540	0.705016
	C3299	C	0.363351	0.124111	0.718149
	C3300	C	0.300066	0.124911	0.706010
	C3301	C	0.290673	0.125579	0.711598
	C3302	C	0.286269	0.215747	0.714011
	C3303	C	0.277452	0.216186	0.717567
	C3304	C	0.272801	0.126663	0.718855
	C3305	C	0.277206	0.036564	0.716356
	C3306	C	0.286022	0.035955	0.712838
	C3307	C	0.263418	0.126999	0.724456
	C3308	C	0.299758	0.374873	0.662595
	C3309	C	0.290219	0.375444	0.658473
	C3310	C	0.285771	0.465722	0.656555
	C3311	C	0.276886	0.466379	0.654361
	C3312	C	0.272216	0.376751	0.653931
	C3313	C	0.276653	0.286624	0.655861
	C3314	C	0.285535	0.285908	0.658081
	C3315	C	0.262669	0.376934	0.649635
	C3316	C	0.325938	0.376891	0.661795
	C3317	C	0.335348	0.375992	0.656249
	C3318	C	0.339732	0.285768	0.653664
	C3319	C	0.348535	0.284975	0.650110
	C3320	C	0.353199	0.374538	0.648946
	C3321	C	0.348827	0.464796	0.651577
	C3322	C	0.340021	0.465614	0.655116
	C3323	C	0.362604	0.373908	0.643464
	H3324	H	0.351810	0.214784	0.648146
	H3325	H	0.336201	0.216050	0.654281
	H3326	H	0.352943	0.284638	0.712456
	H3327	H	0.337196	0.285790	0.708466
	H3328	H	0.312780	0.125278	0.652815
	H3329	H	0.313251	0.376462	0.714917
	H3330	H	0.250259	0.375885	0.715494
	H3331	H	0.375828	0.124834	0.652474
	H3332	H	0.288836	0.215478	0.659341
	H3333	H	0.273109	0.217061	0.655455
	H3334	H	0.274170	0.286576	0.719463
	H3335	H	0.289764	0.285454	0.713198
	H3336	H	0.273569	0.536655	0.652852
	H3337	H	0.289329	0.535014	0.656662
	H3338	H	0.289317	-0.034376	0.711035
	H3339	H	0.273709	-0.033272	0.717222
	H3340	H	0.336719	-0.034008	0.711204
	H3341	H	0.352464	-0.035215	0.715229
	H3342	H	0.336731	0.535785	0.656942
	H3343	H	0.352337	0.534593	0.650646
	Al3344	Al	0.314090	-0.499397	0.802051
	Al3345	Al	0.314075	-0.249457	0.801980
	Al3346	Al	0.250549	-0.248735	0.746728
	Al3347	Al	0.250533	-0.499038	0.746658
	O3348	O	0.323515	-0.457206	0.821752
	O3349	O	0.313994	-0.374262	0.787017
	O3350	O	0.314180	-0.124295	0.817062
	O3351	O	0.368046	-0.459994	0.838447
	O3352	O	0.304718	-0.459559	0.821504
	O3353	O	0.260703	-0.457561	0.844515
	O3354	O	0.304922	-0.291164	0.822159
	O3355	O	0.304506	-0.209636	0.782865
	O3356	O	0.259965	-0.206727	0.766330
	O3357	O	0.323704	-0.288983	0.821107
	O3358	O	0.323221	-0.207253	0.781960
	O3359	O	0.367264	-0.209895	0.758815
	O3360	O	0.260919	-0.289260	0.845068
	O3361	O	0.304687	-0.041283	0.782265
	O3362	O	0.260137	-0.038454	0.765692
	O3363	O	0.367398	-0.041486	0.759317
	O3364	O	0.323457	-0.038934	0.782752
	O3365	O	0.368214	-0.291732	0.837899
	O3366	O	0.251435	-0.124498	0.849420
	O3367	O	0.376666	-0.374864	0.754473
	C3368	C	0.350442	-0.284877	0.830391
	C3369	C	0.354875	-0.375140	0.832157
	C3370	C	0.350218	-0.464806	0.831573
	C3371	C	0.341326	-0.464093	0.829312
	C3372	C	0.336874	-0.373810	0.827550
	C3373	C	0.341551	-0.284259	0.828167
	C3374	C	0.327360	-0.373177	0.823215
	C3375	C	0.364391	-0.375706	0.836442
	C3376	C	0.301142	-0.374962	0.824154
	C3377	C	0.291737	-0.374936	0.829728
	C3378	C	0.287325	-0.284779	0.831967
	C3379	C	0.278521	-0.284416	0.835475
	C3380	C	0.273910	-0.374095	0.836978
	C3381	C	0.278329	-0.464184	0.834630
	C3382	C	0.287131	-0.464585	0.831108
	C3383	C	0.264496	-0.373650	0.842539
	C3384	C	0.300849	-0.125465	0.780831
	C3385	C	0.291322	-0.124916	0.776723
	C3386	C	0.286883	-0.034523	0.774945
	C3387	C	0.277999	-0.033777	0.772678
	C3388	C	0.273325	-0.123415	0.771970
	C3389	C	0.277762	-0.213683	0.773773
	C3390	C	0.286647	-0.214500	0.775984
	C3391	C	0.263805	-0.122681	0.767834
	C3392	C	0.327020	-0.123427	0.780070
	C3393	C	0.336420	-0.123825	0.774433
	C3394	C	0.340801	-0.214059	0.771932
	C3395	C	0.349597	-0.214812	0.768339
	C3396	C	0.354251	-0.125437	0.767066
	C3397	C	0.349873	-0.035102	0.769585
	C3398	C	0.341077	-0.034368	0.773198
	C3399	C	0.363645	-0.125640	0.761384
	H3400	H	0.352874	-0.285189	0.766441
	H3401	H	0.337314	-0.283960	0.772876
	H3402	H	0.353943	-0.215138	0.830786
	H3403	H	0.338222	-0.213893	0.826795
	H3404	H	0.313794	-0.375200	0.770904
	H3405	H	0.314326	-0.124417	0.833198
	H3406	H	0.251264	-0.123848	0.833302
	H3407	H	0.376693	-0.374722	0.770675
	H3408	H	0.290007	-0.284797	0.777175
	H3409	H	0.274214	-0.283401	0.773413
	H3410	H	0.275218	-0.214346	0.837255
	H3411	H	0.290797	-0.214859	0.830970
	H3412	H	0.274658	0.036463	0.771406
	H3413	H	0.290399	0.035278	0.775295
	H3414	H	0.290443	-0.534666	0.829508
	H3415	H	0.274854	-0.533962	0.835672
	H3416	H	0.337821	-0.533922	0.828853
	H3417	H	0.353558	-0.534944	0.832944
	H3418	H	0.337767	0.035956	0.775057
	H3419	H	0.353386	0.034473	0.768689
	Al3420	Al	0.314093	0.000653	0.802082
	Al3421	Al	0.314067	0.250743	0.801977
	Al3422	Al	0.250534	0.251294	0.746688
	Al3423	Al	0.250503	0.001138	0.746645
	O3424	O	0.323480	0.042840	0.821960
	O3425	O	0.314009	0.125671	0.787001
	O3426	O	0.314229	0.375820	0.817105
	O3427	O	0.368010	0.039502	0.838495
	O3428	O	0.304730	0.040358	0.821486
	O3429	O	0.260749	0.042146	0.844644
	O3430	O	0.304921	0.208686	0.822124
	O3431	O	0.304451	0.290156	0.782944
	O3432	O	0.259935	0.293074	0.766388
	O3433	O	0.323668	0.211125	0.821056
	O3434	O	0.323218	0.292292	0.781943
	O3435	O	0.367230	0.289834	0.758848
	O3436	O	0.260898	0.210479	0.845112
	O3437	O	0.304675	0.458600	0.782235
	O3438	O	0.260127	0.461343	0.765821
	O3439	O	0.367436	0.458103	0.759520
	O3440	O	0.323427	0.460541	0.782544
	O3441	O	0.368208	0.207769	0.837863
	O3442	O	0.251415	0.375636	0.849495
	O3443	O	0.376667	0.124883	0.754391
	C3444	C	0.350423	0.214853	0.830533
	C3445	C	0.354857	0.124444	0.832136
	C3446	C	0.350159	0.035004	0.831425
	C3447	C	0.341277	0.035907	0.829208
	C3448	C	0.336841	0.126149	0.827578
	C3449	C	0.341533	0.215681	0.828310
	C3450	C	0.327325	0.126803	0.823307
	C3451	C	0.364359	0.123867	0.836362
	C3452	C	0.301127	0.124615	0.824035
	C3453	C	0.291751	0.124941	0.829723
	C3454	C	0.287338	0.214985	0.831954
	C3455	C	0.278524	0.215315	0.835553
	C3456	C	0.273900	0.125750	0.837072
	C3457	C	0.278299	0.035675	0.834670
	C3458	C	0.287120	0.035304	0.831082
	C3459	C	0.264506	0.126124	0.842621
	C3460	C	0.300820	0.374736	0.780876
	C3461	C	0.291307	0.375142	0.776527
	C3462	C	0.286870	0.465363	0.774854
	C3463	C	0.277976	0.466010	0.772664
	C3464	C	0.273294	0.376467	0.772120
	C3465	C	0.277736	0.286270	0.773920
	C3466	C	0.286622	0.285655	0.776111
	C3467	C	0.263784	0.376959	0.767858
	C3468	C	0.327020	0.376326	0.780011
	C3469	C	0.336398	0.375915	0.774369
	C3470	C	0.340789	0.285663	0.771876
	C3471	C	0.349599	0.285040	0.768244
	C3472	C	0.354264	0.374656	0.767054
	C3473	C	0.349864	0.464952	0.769413
	C3474	C	0.341064	0.465498	0.773061
	C3475	C	0.363641	0.374126	0.761486
	H3476	H	0.352909	0.214670	0.766291
	H3477	H	0.337291	0.215928	0.772831
	H3478	H	0.353965	0.284286	0.830967
	H3479	H	0.338200	0.285947	0.827058
	H3480	H	0.313835	0.124676	0.770866
	H3481	H	0.314390	0.375362	0.833161
	H3482	H	0.251188	0.375901	0.833442
	H3483	H	0.376783	0.124615	0.770464
	H3484	H	0.289951	0.215469	0.777396
	H3485	H	0.274232	0.216389	0.773516
	H3486	H	0.275226	0.285571	0.837250
	H3487	H	0.290806	0.285102	0.830926
	H3488	H	0.274636	0.536365	0.771224
	H3489	H	0.290384	0.534961	0.775168
	H3490	H	0.290416	-0.034949	0.829359
	H3491	H	0.274830	-0.034290	0.835656
	H3492	H	0.337744	-0.033840	0.828761
	H3493	H	0.353493	-0.035521	0.832580
	H3494	H	0.337781	0.535944	0.774958
	H3495	H	0.353357	0.534650	0.768489
	Al3496	Al	0.315116	-0.499435	0.920532
	Al3497	Al	0.315118	-0.249450	0.920481
	Al3498	Al	0.251579	-0.249274	0.864539
	Al3499	Al	0.251557	-0.499446	0.864592
	O3500	O	0.324508	-0.457474	0.940250
	O3501	O	0.315036	-0.374560	0.905431
	O3502	O	0.315269	-0.124370	0.935536
	O3503	O	0.369062	-0.461956	0.956712
	O3504	O	0.305762	-0.459577	0.939925
	O3505	O	0.261774	-0.457530	0.962800
	O3506	O	0.305940	-0.291098	0.940360
	O3507	O	0.305551	-0.209417	0.901223
	O3508	O	0.261042	-0.207631	0.884140
	O3509	O	0.324761	-0.289345	0.939657
	O3510	O	0.324294	-0.207809	0.900463
	O3511	O	0.368286	-0.210414	0.877270
	O3512	O	0.261930	-0.289312	0.963259
	O3513	O	0.305658	-0.041035	0.900921
	O3514	O	0.261136	-0.039297	0.883904
	O3515	O	0.368410	-0.042085	0.877612
	O3516	O	0.324450	-0.039485	0.901016
	O3517	O	0.369246	-0.293413	0.956203
	O3518	O	0.252461	-0.124379	0.967754
	O3519	O	0.377690	-0.375283	0.872792
	C3520	C	0.351445	-0.286467	0.949179
	C3521	C	0.355887	-0.376779	0.950670
	C3522	C	0.351184	-0.466024	0.950094
	C3523	C	0.342303	-0.464902	0.947867
	C3524	C	0.337866	-0.374627	0.946173
	C3525	C	0.342558	-0.285302	0.946911
	C3526	C	0.328362	-0.373793	0.941792
	C3527	C	0.365415	-0.377543	0.954769
	C3528	C	0.302172	-0.375208	0.942440
	C3529	C	0.292781	-0.374795	0.947993
	C3530	C	0.288363	-0.284784	0.950323
	C3531	C	0.279559	-0.284402	0.953882
	C3532	C	0.274947	-0.374158	0.955354
	C3533	C	0.279346	-0.464255	0.952971
	C3534	C	0.288154	-0.464556	0.949411
	C3535	C	0.265552	-0.373500	0.960809
	C3536	C	0.301860	-0.125207	0.899266
	C3537	C	0.292359	-0.124920	0.894859
	C3538	C	0.287905	-0.034670	0.893147
	C3539	C	0.279021	-0.034031	0.890886
	C3540	C	0.274345	-0.123768	0.890170
	C3541	C	0.278795	-0.214089	0.891929
	C3542	C	0.287681	-0.214585	0.894174
	C3543	C	0.264831	-0.123339	0.885820
	C3544	C	0.328047	-0.123603	0.898417
	C3545	C	0.337434	-0.124012	0.892822
	C3546	C	0.341802	-0.214294	0.890296
	C3547	C	0.350588	-0.215049	0.886637
	C3548	C	0.355270	-0.125717	0.885337
	C3549	C	0.350891	-0.035338	0.887767
	C3550	C	0.342100	-0.034525	0.891396
	C3551	C	0.364666	-0.126259	0.879754
	H3552	H	0.353880	-0.285383	0.884805
	H3553	H	0.338276	-0.283814	0.891238
	H3554	H	0.354978	-0.216956	0.949682
	H3555	H	0.339267	-0.215004	0.945510
	H3556	H	0.314907	-0.374132	0.889290
	H3557	H	0.315476	-0.124761	0.951597
	H3558	H	0.252351	-0.124925	0.951656
	H3559	H	0.377712	-0.375479	0.888868
	H3560	H	0.291014	-0.284985	0.895436
	H3561	H	0.275264	-0.283950	0.891412
	H3562	H	0.276249	-0.214294	0.955642
	H3563	H	0.291840	-0.214793	0.949326
	H3564	H	0.275688	0.036317	0.889528
	H3565	H	0.291441	0.035060	0.893560
	H3566	H	0.291474	-0.534729	0.947657
	H3567	H	0.275890	-0.534157	0.953945
	H3568	H	0.338739	-0.534333	0.947313
	H3569	H	0.354497	-0.536312	0.951274
	H3570	H	0.338789	0.035713	0.893200
	H3571	H	0.354419	0.034148	0.886838
	Al3572	Al	0.315121	0.000688	0.920538
	Al3573	Al	0.315138	0.250625	0.920589
	Al3574	Al	0.251558	0.250740	0.864561
	Al3575	Al	0.251556	0.000612	0.864592
	O3576	O	0.324532	0.042796	0.940163
	O3577	O	0.315046	0.125519	0.905437
	O3578	O	0.315234	0.375864	0.935686
	O3579	O	0.369059	0.038328	0.956712
	O3580	O	0.305777	0.041035	0.940049
	O3581	O	0.261734	0.042761	0.962681
	O3582	O	0.305930	0.209197	0.940529
	O3583	O	0.305513	0.290207	0.901444
	O3584	O	0.261021	0.292418	0.884280
	O3585	O	0.324752	0.210869	0.939741
	O3586	O	0.324314	0.292314	0.900683
	O3587	O	0.368251	0.289737	0.877187
	O3588	O	0.261906	0.210853	0.963281
	O3589	O	0.305738	0.458574	0.900719
	O3590	O	0.261189	0.460680	0.883596
	O3591	O	0.368413	0.458235	0.877550
	O3592	O	0.324471	0.460634	0.901056
	O3593	O	0.369294	0.206816	0.955943
	O3594	O	0.252472	0.375374	0.967670
	O3595	O	0.377671	0.125004	0.872749
	C3596	C	0.351487	0.213784	0.948976
	C3597	C	0.355899	0.123394	0.950635
	C3598	C	0.351202	0.034126	0.950137
	C3599	C	0.342302	0.035238	0.947973
	C3600	C	0.337901	0.125650	0.946156
	C3601	C	0.342600	0.214911	0.946841
	C3602	C	0.328374	0.126485	0.941917
	C3603	C	0.365444	0.122790	0.954606
	C3604	C	0.302157	0.125172	0.942543
	C3605	C	0.292758	0.125819	0.947936
	C3606	C	0.288326	0.215784	0.950126
	C3607	C	0.279517	0.216157	0.953653
	C3608	C	0.274904	0.126609	0.955141
	C3609	C	0.279327	0.036648	0.952884
	C3610	C	0.288145	0.036262	0.949398
	C3611	C	0.265504	0.126661	0.960691
	C3612	C	0.301869	0.374616	0.899279
	C3613	C	0.292356	0.375174	0.895059
	C3614	C	0.287909	0.465382	0.893219
	C3615	C	0.279023	0.466019	0.890898
	C3616	C	0.274370	0.376408	0.890109
	C3617	C	0.278820	0.286291	0.891997
	C3618	C	0.287704	0.285577	0.894365
	C3619	C	0.264854	0.376466	0.885786
	C3620	C	0.328078	0.376425	0.898582
	C3621	C	0.337468	0.376003	0.892897
	C3622	C	0.341848	0.285693	0.890423
	C3623	C	0.350643	0.285038	0.886718
	C3624	C	0.355298	0.374493	0.885465
	C3625	C	0.350905	0.464806	0.887838
	C3626	C	0.342109	0.465555	0.891530
	C3627	C	0.364656	0.374136	0.879637
	H3628	H	0.353922	0.214564	0.884798
	H3629	H	0.338344	0.215993	0.891489
	H3630	H	0.355012	0.283141	0.949320
	H3631	H	0.339282	0.285328	0.945578
	H3632	H	0.314933	0.126206	0.889447
	H3633	H	0.315283	0.375966	0.951731
	H3634	H	0.252425	0.375069	0.951486
	H3635	H	0.377820	0.125397	0.888859
	H3636	H	0.291059	0.215553	0.895595
	H3637	H	0.275310	0.216493	0.891533
	H3638	H	0.276216	0.286416	0.955252
	H3639	H	0.291797	0.285576	0.949010
	H3640	H	0.275658	0.536193	0.889510
	H3641	H	0.291407	0.535139	0.893549
	H3642	H	0.291460	-0.033991	0.947743
	H3643	H	0.275855	-0.033067	0.953840
	H3644	H	0.338783	-0.034484	0.947547
	H3645	H	0.354536	-0.036396	0.951317
	H3646	H	0.338803	0.535691	0.893461
	H3647	H	0.354376	0.534698	0.886831
	Al3648	Al	0.434121	-0.498495	0.086285
	Al3649	Al	0.434131	-0.247938	0.086440
	Al3650	Al	0.378451	-0.251068	-0.023217
	Al3651	Al	0.378454	-0.501752	-0.023161
	O3652	O	0.443315	-0.456279	0.106976
	O3653	O	0.434422	-0.372775	0.071416
	O3654	O	0.434002	-0.122849	0.101369
	O3655	O	0.487843	-0.460737	0.123592
	O3656	O	0.424557	-0.458365	0.104427
	O3657	O	0.380853	-0.455262	0.128762
	O3658	O	0.424769	-0.289889	0.105237
	O3659	O	0.425266	-0.208554	0.064897
	O3660	O	0.387165	-0.209322	-0.001183
	O3661	O	0.443543	-0.287631	0.106427
	O3662	O	0.443429	-0.205967	0.066830
	O3663	O	0.486998	-0.209606	0.041436
	O3664	O	0.381083	-0.286709	0.129657
	O3665	O	0.425451	-0.040458	0.064320
	O3666	O	0.387310	-0.041376	-0.001725
	O3667	O	0.487251	-0.041140	0.042032
	O3668	O	0.443644	-0.037279	0.067494
	O3669	O	0.488056	-0.292406	0.122833
	O3670	O	0.371833	-0.121982	0.133376
	O3671	O	0.496514	-0.374265	0.038403
	C3672	C	0.470290	-0.285255	0.115059
	C3673	C	0.474694	-0.375612	0.116979
	C3674	C	0.469981	-0.464890	0.116369
	C3675	C	0.461104	-0.463611	0.114132
	C3676	C	0.456695	-0.373185	0.112411
	C3677	C	0.461415	-0.284004	0.112814
	C3678	C	0.447163	-0.372388	0.108377
	C3679	C	0.484220	-0.376419	0.121377
	C3680	C	0.420976	-0.373952	0.106824
	C3681	C	0.411598	-0.373294	0.111898
	C3682	C	0.407252	-0.283185	0.114470
	C3683	C	0.398500	-0.282397	0.118583
	C3684	C	0.393880	-0.371836	0.120262
	C3685	C	0.398216	-0.461902	0.117416
	C3686	C	0.406970	-0.462686	0.113256
	C3687	C	0.384594	-0.371156	0.126611
	C3688	C	0.422145	-0.124570	0.059113
	C3689	C	0.413997	-0.124213	0.044846
	C3690	C	0.410243	-0.035185	0.037680
	C3691	C	0.402643	-0.035563	0.024626
	C3692	C	0.398582	-0.124705	0.018489
	C3693	C	0.402342	-0.213617	0.025633
	C3694	C	0.409939	-0.213349	0.038665
	C3695	C	0.390456	-0.125173	0.004053
	C3696	C	0.447151	-0.121888	0.064539
	C3697	C	0.456421	-0.122524	0.058052
	C3698	C	0.460739	-0.212720	0.055047
	C3699	C	0.469467	-0.213563	0.050626
	C3700	C	0.474089	-0.124312	0.049260
	C3701	C	0.469751	-0.034136	0.051973
	C3702	C	0.461033	-0.033227	0.056335
	C3703	C	0.483443	-0.125252	0.043829
	H3704	H	0.472778	-0.283414	0.048362
	H3705	H	0.457243	-0.281904	0.056300
	H3706	H	0.473863	-0.215923	0.115526
	H3707	H	0.458122	-0.213614	0.111508
	H3708	H	0.434887	-0.371869	0.055385
	H3709	H	0.433907	-0.123053	0.117336
	H3710	H	0.372255	-0.121769	0.117394
	H3711	H	0.496523	-0.374113	0.054472
	H3712	H	0.412793	-0.282269	0.044058
	H3713	H	0.399316	-0.282811	0.020831
	H3714	H	0.395236	-0.212365	0.120717
	H3715	H	0.410771	-0.213748	0.113331
	H3716	H	0.399811	0.033408	0.019016
	H3717	H	0.413294	0.034159	0.042246
	H3718	H	0.410242	-0.532715	0.111149
	H3719	H	0.394716	-0.531275	0.118615
	H3720	H	0.457540	-0.533004	0.113863
	H3721	H	0.473281	-0.535262	0.117878
	H3722	H	0.457763	0.036712	0.058622
	H3723	H	0.473232	0.035077	0.050709
	Al3724	Al	0.434142	0.001466	0.086289
	Al3725	Al	0.434095	0.251977	0.086332
	Al3726	Al	0.378452	0.248956	-0.023232
	Al3727	Al	0.378469	-0.001817	-0.023349
	O3728	O	0.443301	0.043960	0.106845
	O3729	O	0.434364	0.127005	0.071272
	O3730	O	0.434047	0.377034	0.101302
	O3731	O	0.487838	0.039779	0.123630
	O3732	O	0.424555	0.041675	0.104372
	O3733	O	0.380864	0.044983	0.128776
	O3734	O	0.424768	0.210179	0.105261
	O3735	O	0.425276	0.291794	0.064702
	O3736	O	0.387108	0.290523	-0.001049
	O3737	O	0.443504	0.212253	0.106230
	O3738	O	0.443434	0.293855	0.066947
	O3739	O	0.486990	0.290035	0.041354
	O3740	O	0.381091	0.213264	0.129507
	O3741	O	0.425434	0.459981	0.064323
	O3742	O	0.387326	0.458620	-0.001673
	O3743	O	0.487231	0.458441	0.042103
	O3744	O	0.443625	0.462315	0.067426
	O3745	O	0.488084	0.208171	0.122894
	O3746	O	0.371855	0.378039	0.133378
	O3747	O	0.496591	0.125322	0.038293
	C3748	C	0.470293	0.215117	0.115035
	C3749	C	0.474701	0.124795	0.117065
	C3750	C	0.469993	0.035453	0.116381
	C3751	C	0.461100	0.036463	0.114116
	C3752	C	0.456683	0.126876	0.112340
	C3753	C	0.461400	0.216071	0.112761
	C3754	C	0.447163	0.127905	0.108273
	C3755	C	0.484207	0.124335	0.121402
	C3756	C	0.420972	0.126075	0.106778
	C3757	C	0.411604	0.126571	0.111901
	C3758	C	0.407284	0.216994	0.114492
	C3759	C	0.398531	0.217881	0.118609
	C3760	C	0.393919	0.128472	0.120236
	C3761	C	0.398218	0.038185	0.117267
	C3762	C	0.406966	0.037330	0.113114
	C3763	C	0.384619	0.128840	0.126576
	C3764	C	0.422144	0.375923	0.059022
	C3765	C	0.414003	0.375114	0.044705
	C3766	C	0.410262	0.463857	0.037469
	C3767	C	0.402672	0.463906	0.024447
	C3768	C	0.398592	0.374712	0.018397
	C3769	C	0.402313	0.285936	0.025777
	C3770	C	0.409905	0.286109	0.038798
	C3771	C	0.390429	0.374727	0.004138
	C3772	C	0.447148	0.377780	0.064531
	C3773	C	0.456428	0.377165	0.058032
	C3774	C	0.460745	0.287244	0.055061
	C3775	C	0.469478	0.286468	0.050665
	C3776	C	0.474097	0.375506	0.049257
	C3777	C	0.469781	0.465632	0.051997
	C3778	C	0.461028	0.466386	0.056368
	C3779	C	0.483428	0.374791	0.043827
	H3780	H	0.472724	0.216502	0.048438
	H3781	H	0.457283	0.217951	0.056302
	H3782	H	0.473826	0.284537	0.115369
	H3783	H	0.458072	0.286370	0.111380
	H3784	H	0.434862	0.127317	0.055262
	H3785	H	0.434172	0.376607	0.117267
	H3786	H	0.372221	0.377498	0.117300
	H3787	H	0.496683	0.125022	0.054315
	H3788	H	0.412658	0.217166	0.044582
	H3789	H	0.399214	0.216808	0.021240
	H3790	H	0.395271	0.287901	0.120824
	H3791	H	0.410782	0.286317	0.113426
	H3792	H	0.399884	0.532723	0.018957
	H3793	H	0.413340	0.532935	0.042195
	H3794	H	0.410234	-0.032517	0.110915
	H3795	H	0.394706	-0.030985	0.118421
	H3796	H	0.457563	-0.033200	0.113829
	H3797	H	0.473306	-0.034976	0.117821
	H3798	H	0.457760	0.536309	0.058598
	H3799	H	0.473304	0.534900	0.050843
	Al3800	Al	0.434886	-0.499216	0.204739
	Al3801	Al	0.434893	-0.249178	0.204792
	Al3802	Al	0.371583	-0.247273	0.148413
	Al3803	Al	0.371587	-0.496559	0.148411
	O3804	O	0.444288	-0.457107	0.224725
	O3805	O	0.434848	-0.374335	0.189776
	O3806	O	0.434961	-0.124275	0.219880
	O3807	O	0.488813	-0.461219	0.241331
	O3808	O	0.425509	-0.459522	0.224104
	O3809	O	0.381577	-0.456595	0.247259
	O3810	O	0.425785	-0.291195	0.224981
	O3811	O	0.425314	-0.209638	0.185648
	O3812	O	0.380782	-0.205090	0.169040
	O3813	O	0.444495	-0.288652	0.223891
	O3814	O	0.444053	-0.206920	0.184733
	O3815	O	0.488072	-0.210402	0.162163
	O3816	O	0.381730	-0.288430	0.247890
	O3817	O	0.425554	-0.041449	0.184904
	O3818	O	0.380991	-0.036610	0.168387
	O3819	O	0.488275	-0.042001	0.162718
	O3820	O	0.444276	-0.038638	0.185431
	O3821	O	0.489009	-0.292972	0.240627
	O3822	O	0.372272	-0.123544	0.252341
	O3823	O	0.497539	-0.375168	0.157790
	C3824	C	0.471210	-0.285492	0.233387
	C3825	C	0.475639	-0.376048	0.235117
	C3826	C	0.470944	-0.465500	0.234342
	C3827	C	0.462060	-0.464474	0.232144
	C3828	C	0.457636	-0.373967	0.230491
	C3829	C	0.462328	-0.284470	0.231152
	C3830	C	0.448120	-0.373124	0.226153
	C3831	C	0.485148	-0.376870	0.239257
	C3832	C	0.421958	-0.375104	0.226744
	C3833	C	0.412583	-0.374373	0.232370
	C3834	C	0.408199	-0.284003	0.234744
	C3835	C	0.399400	-0.283247	0.238290
	C3836	C	0.394755	-0.372804	0.239738
	C3837	C	0.399148	-0.463131	0.237337
	C3838	C	0.407948	-0.463947	0.233760
	C3839	C	0.385334	-0.372447	0.245335
	C3840	C	0.421692	-0.125336	0.183418
	C3841	C	0.412171	-0.123984	0.179041
	C3842	C	0.407764	-0.033666	0.177208
	C3843	C	0.398881	-0.032446	0.175023
	C3844	C	0.394155	-0.121738	0.174427
	C3845	C	0.398561	-0.212011	0.176220
	C3846	C	0.407445	-0.213135	0.178403
	C3847	C	0.384633	-0.121052	0.170408
	C3848	C	0.447850	-0.123074	0.182876
	C3849	C	0.457249	-0.123776	0.177285
	C3850	C	0.461619	-0.214195	0.174872
	C3851	C	0.470428	-0.214888	0.171383
	C3852	C	0.475104	-0.125391	0.170164
	C3853	C	0.470737	-0.034945	0.172559
	C3854	C	0.461925	-0.034305	0.176024
	C3855	C	0.484500	-0.126128	0.164692
	H3856	H	0.473730	-0.285300	0.169494
	H3857	H	0.458116	-0.283770	0.175697
	H3858	H	0.474789	-0.216068	0.233767
	H3859	H	0.459033	-0.214142	0.229899
	H3860	H	0.434952	-0.374219	0.173651
	H3861	H	0.435128	-0.124172	0.235981
	H3862	H	0.372104	-0.123649	0.236253
	H3863	H	0.497681	-0.375319	0.173850
	H3864	H	0.410751	-0.283594	0.179767
	H3865	H	0.395003	-0.281391	0.175856
	H3866	H	0.396120	-0.213026	0.240130
	H3867	H	0.411712	-0.214280	0.233855
	H3868	H	0.395588	0.037894	0.173648
	H3869	H	0.411318	0.035651	0.177611
	H3870	H	0.411241	-0.534104	0.232071
	H3871	H	0.395647	-0.532776	0.238414
	H3872	H	0.458481	-0.533886	0.231663
	H3873	H	0.474247	-0.536283	0.235502
	H3874	H	0.458620	0.035940	0.177757
	H3875	H	0.474242	0.034786	0.171687
	Al3876	Al	0.434928	0.000798	0.204790
	Al3877	Al	0.434906	0.250849	0.204708
	Al3878	Al	0.371578	0.252667	0.148489
	Al3879	Al	0.371581	0.003603	0.148389
	O3880	O	0.444283	0.043302	0.224690
	O3881	O	0.434822	0.125740	0.189725
	O3882	O	0.434976	0.375692	0.219770
	O3883	O	0.488818	0.039252	0.241285
	O3884	O	0.425555	0.040653	0.224195
	O3885	O	0.381597	0.042973	0.247438
	O3886	O	0.425764	0.208858	0.224777
	O3887	O	0.425306	0.290431	0.185611
	O3888	O	0.380767	0.295542	0.169095
	O3889	O	0.444540	0.211670	0.223726
	O3890	O	0.444007	0.293218	0.184591
	O3891	O	0.488111	0.289737	0.162263
	O3892	O	0.381747	0.211334	0.247744
	O3893	O	0.425520	0.458666	0.184954
	O3894	O	0.381003	0.463792	0.168467
	O3895	O	0.488273	0.457950	0.162657
	O3896	O	0.444272	0.461619	0.185192
	O3897	O	0.488974	0.207812	0.240850
	O3898	O	0.372309	0.376463	0.252214
	O3899	O	0.497581	0.124876	0.157827
	C3900	C	0.471237	0.214757	0.233295
	C3901	C	0.475638	0.124129	0.235066
	C3902	C	0.470956	0.034699	0.234440
	C3903	C	0.462068	0.035904	0.232202
	C3904	C	0.457658	0.126546	0.230355
	C3905	C	0.462354	0.215913	0.231033
	C3906	C	0.448151	0.127293	0.226026
	C3907	C	0.485152	0.123663	0.239267
	C3908	C	0.421984	0.125082	0.226785
	C3909	C	0.412576	0.125490	0.232372
	C3910	C	0.408180	0.215850	0.234768
	C3911	C	0.399381	0.216476	0.238356
	C3912	C	0.394740	0.126671	0.239766
	C3913	C	0.399136	0.036351	0.237443
	C3914	C	0.407931	0.035914	0.233875
	C3915	C	0.385356	0.126991	0.245328
	C3916	C	0.421652	0.374770	0.183486
	C3917	C	0.412159	0.375602	0.179133
	C3918	C	0.407779	0.466115	0.177307
	C3919	C	0.398886	0.467447	0.175162
	C3920	C	0.394153	0.378425	0.174665
	C3921	C	0.398537	0.287746	0.176347
	C3922	C	0.407431	0.286554	0.178489
	C3923	C	0.384628	0.379404	0.170583
	C3924	C	0.447844	0.377065	0.182770
	C3925	C	0.457236	0.376410	0.177332
	C3926	C	0.461616	0.286078	0.175094
	C3927	C	0.470431	0.285255	0.171629
	C3928	C	0.475116	0.374647	0.170361
	C3929	C	0.470743	0.465040	0.172699
	C3930	C	0.461927	0.465815	0.176152
	C3931	C	0.484501	0.374098	0.164743
	H3932	H	0.473705	0.214861	0.169827
	H3933	H	0.458096	0.216545	0.176036
	H3934	H	0.474733	0.284365	0.233798
	H3935	H	0.459004	0.285976	0.229824
	H3936	H	0.434690	0.125620	0.173616
	H3937	H	0.435035	0.376021	0.235897
	H3938	H	0.372178	0.376344	0.236072
	H3939	H	0.497862	0.124930	0.173876
	H3940	H	0.410741	0.215903	0.179673
	H3941	H	0.394987	0.218363	0.175932
	H3942	H	0.396058	0.286691	0.240088
	H3943	H	0.411675	0.285582	0.233802
	H3944	H	0.395597	0.537893	0.173854
	H3945	H	0.411339	0.535696	0.177579
	H3946	H	0.411238	-0.034260	0.232151
	H3947	H	0.395643	-0.033438	0.238440
	H3948	H	0.458536	-0.034096	0.231929
	H3949	H	0.474300	-0.035460	0.235884
	H3950	H	0.458648	0.536290	0.177929
	H3951	H	0.474247	0.534776	0.171773
	Al3952	Al	0.435936	-0.499888	0.323122
	Al3953	Al	0.435903	-0.249953	0.323024
	Al3954	Al	0.372406	-0.248464	0.267376
	Al3955	Al	0.372391	-0.498606	0.267239
	O3956	O	0.445328	-0.458086	0.342794
	O3957	O	0.435752	-0.375297	0.308006
	O3958	O	0.436005	-0.124841	0.338004
	O3959	O	0.489900	-0.461035	0.359305
	O3960	O	0.426627	-0.459692	0.342741
	O3961	O	0.382554	-0.457196	0.365485
	O3962	O	0.426729	-0.291569	0.343009
	O3963	O	0.426322	-0.210021	0.303868
	O3964	O	0.381795	-0.206734	0.287078
	O3965	O	0.445523	-0.289730	0.342135
	O3966	O	0.445109	-0.208588	0.303059
	O3967	O	0.489102	-0.211155	0.280067
	O3968	O	0.382771	-0.288922	0.366218
	O3969	O	0.426557	-0.041856	0.303165
	O3970	O	0.382015	-0.038582	0.286594
	O3971	O	0.489283	-0.042977	0.280648
	O3972	O	0.445277	-0.040375	0.303562
	O3973	O	0.490046	-0.292852	0.358689
	O3974	O	0.373318	-0.124699	0.370618
	O3975	O	0.498489	-0.376079	0.275491
	C3976	C	0.472243	-0.286088	0.351321
	C3977	C	0.476690	-0.376453	0.352955
	C3978	C	0.471991	-0.465916	0.352533
	C3979	C	0.463092	-0.464995	0.350318
	C3980	C	0.458669	-0.374696	0.348528
	C3981	C	0.463360	-0.285286	0.349130
	C3982	C	0.449160	-0.374025	0.344179
	C3983	C	0.486214	-0.376989	0.357206
	C3984	C	0.422985	-0.375477	0.345198
	C3985	C	0.413593	-0.375344	0.350723
	C3986	C	0.409204	-0.285116	0.353177
	C3987	C	0.400396	-0.284261	0.356790
	C3988	C	0.395750	-0.373817	0.358072
	C3989	C	0.400158	-0.464081	0.355786
	C3990	C	0.408963	-0.464984	0.352199
	C3991	C	0.386338	-0.373324	0.363576
	C3992	C	0.422692	-0.125696	0.301678
	C3993	C	0.413167	-0.125281	0.297514
	C3994	C	0.408711	-0.035274	0.295887
	C3995	C	0.399827	-0.034361	0.293705
	C3996	C	0.395158	-0.123842	0.292992
	C3997	C	0.399611	-0.213937	0.294725
	C3998	C	0.408496	-0.214822	0.296917
	C3999	C	0.385651	-0.122894	0.288641
	C4000	C	0.448882	-0.124602	0.301054
	C4001	C	0.458256	-0.124844	0.295423
	C4002	C	0.462632	-0.215081	0.293011
	C4003	C	0.471452	-0.215778	0.289475
	C4004	C	0.476106	-0.126336	0.288145
	C4005	C	0.471729	-0.036174	0.290629
	C4006	C	0.462921	-0.035453	0.294145
	C4007	C	0.485494	-0.127037	0.282618
	H4008	H	0.474755	-0.285857	0.287712
	H4009	H	0.459159	-0.284802	0.293910
	H4010	H	0.475744	-0.216186	0.351830
	H4011	H	0.460021	-0.214756	0.347900
	H4012	H	0.435571	-0.375521	0.291913
	H4013	H	0.436090	-0.124148	0.354091
	H4014	H	0.373087	-0.125004	0.354537
	H4015	H	0.498529	-0.375780	0.291650
	H4016	H	0.411818	-0.285185	0.298124
	H4017	H	0.396067	-0.283563	0.294320
	H4018	H	0.397131	-0.213834	0.358456
	H4019	H	0.412698	-0.215304	0.351993
	H4020	H	0.396501	0.035887	0.292522
	H4021	H	0.412232	0.034451	0.296265
	H4022	H	0.412229	-0.535206	0.350336
	H4023	H	0.396649	-0.533900	0.356695
	H4024	H	0.459557	-0.534538	0.350105
	H4025	H	0.475330	-0.536102	0.354074
	H4026	H	0.459634	0.034970	0.296114
	H4027	H	0.475222	0.033569	0.289767
	Al4028	Al	0.435937	0.000252	0.322990
	Al4029	Al	0.435918	0.250140	0.323095
	Al4030	Al	0.372401	0.251396	0.267182
	Al4031	Al	0.372414	0.001537	0.267429
	O4032	O	0.445338	0.041860	0.342759
	O4033	O	0.435803	0.125008	0.307917
	O4034	O	0.436033	0.375089	0.338141
	O4035	O	0.489853	0.038738	0.359476
	O4036	O	0.426589	0.039778	0.342466
	O4037	O	0.382547	0.042196	0.365372
	O4038	O	0.426779	0.208182	0.343219
	O4039	O	0.426266	0.289508	0.304206
	O4040	O	0.381802	0.293218	0.287029
	O4041	O	0.445584	0.210279	0.341916
	O4042	O	0.445057	0.292076	0.303012
	O4043	O	0.489071	0.289345	0.280126
	O4044	O	0.382762	0.210598	0.366075
	O4045	O	0.426516	0.457833	0.303446
	O4046	O	0.381976	0.461661	0.286507
	O4047	O	0.489202	0.457391	0.280398
	O4048	O	0.445242	0.460368	0.303512
	O4049	O	0.490101	0.207188	0.358753
	O4050	O	0.373338	0.375756	0.370375
	O4051	O	0.498535	0.124149	0.275599
	C4052	C	0.472288	0.214178	0.351210
	C4053	C	0.476720	0.123880	0.352994
	C4054	C	0.472040	0.034275	0.352474
	C4055	C	0.463166	0.034976	0.350255
	C4056	C	0.458727	0.125267	0.348329
	C4057	C	0.463404	0.214956	0.348968
	C4058	C	0.449196	0.125767	0.344091
	C4059	C	0.486254	0.123278	0.357272
	C4060	C	0.422996	0.123985	0.345204
	C4061	C	0.413611	0.124424	0.350702
	C4062	C	0.409217	0.214633	0.353229
	C4063	C	0.400409	0.215369	0.356775
	C4064	C	0.395746	0.125794	0.357964
	C4065	C	0.400127	0.035582	0.355490
	C4066	C	0.408956	0.034867	0.351960
	C4067	C	0.386343	0.126310	0.363512
	C4068	C	0.422650	0.374025	0.302025
	C4069	C	0.413152	0.374829	0.297573
	C4070	C	0.408730	0.465312	0.295786
	C4071	C	0.399844	0.466276	0.293506
	C4072	C	0.395153	0.376861	0.292866
	C4073	C	0.399583	0.286504	0.294600
	C4074	C	0.408462	0.285562	0.296915
	C4075	C	0.385627	0.377359	0.288565
	C4076	C	0.448816	0.376073	0.300959
	C4077	C	0.458218	0.375285	0.295354
	C4078	C	0.462601	0.284964	0.292941
	C4079	C	0.471407	0.284375	0.289391
	C4080	C	0.476057	0.373907	0.288021
	C4081	C	0.471665	0.464232	0.290409
	C4082	C	0.462865	0.464848	0.293955
	C4083	C	0.485468	0.373421	0.282508
	H4084	H	0.474696	0.214173	0.287683
	H4085	H	0.459100	0.215192	0.293838
	H4086	H	0.475867	0.283569	0.351588
	H4087	H	0.460076	0.285431	0.347564
	H4088	H	0.435646	0.125269	0.291896
	H4089	H	0.436054	0.375506	0.354224
	H4090	H	0.373227	0.375487	0.354203
	H4091	H	0.498926	0.124438	0.291658
	H4092	H	0.411772	0.215218	0.298360
	H4093	H	0.396050	0.216610	0.294145
	H4094	H	0.397110	0.285651	0.358520
	H4095	H	0.412698	0.284726	0.352261
	H4096	H	0.396506	0.536652	0.292163
	H4097	H	0.412257	0.534978	0.296256
	H4098	H	0.412232	-0.035499	0.350046
	H4099	H	0.396624	-0.034289	0.356165
	H4100	H	0.459620	-0.034605	0.349937
	H4101	H	0.475359	-0.035896	0.353862
	H4102	H	0.459583	0.535186	0.295715
	H4103	H	0.475171	0.533761	0.289400
	Al4104	Al	0.436981	-0.500265	0.441096
	Al4105	Al	0.436968	-0.250197	0.441040
	Al4106	Al	0.373416	-0.249470	0.385783
	Al4107	Al	0.373377	-0.499525	0.385608
	O4108	O	0.446416	-0.458451	0.460661
	O4109	O	0.436851	-0.375046	0.426078
	O4110	O	0.437121	-0.124991	0.456199
	O4111	O	0.490961	-0.461397	0.477578
	O4112	O	0.427593	-0.460572	0.460372
	O4113	O	0.383591	-0.457826	0.483452
	O4114	O	0.427814	-0.292245	0.461151
	O4115	O	0.427402	-0.210187	0.421948
	O4116	O	0.382805	-0.207162	0.405529
	O4117	O	0.446591	-0.290130	0.460087
	O4118	O	0.446128	-0.208582	0.420961
	O4119	O	0.490110	-0.211209	0.397898
	O4120	O	0.383787	-0.289649	0.483959
	O4121	O	0.427553	-0.041914	0.421474
	O4122	O	0.383031	-0.038749	0.404866
	O4123	O	0.490306	-0.042649	0.398418
	O4124	O	0.446328	-0.040423	0.421726
	O4125	O	0.491143	-0.293109	0.476815
	O4126	O	0.374321	-0.124801	0.488450
	O4127	O	0.499590	-0.375935	0.393518
	C4128	C	0.473352	-0.286491	0.469169
	C4129	C	0.477788	-0.376772	0.471070
	C4130	C	0.473097	-0.466257	0.470622
	C4131	C	0.464204	-0.465410	0.468428
	C4132	C	0.459771	-0.375128	0.466503
	C4133	C	0.464465	-0.285663	0.466952
	C4134	C	0.450252	-0.374385	0.462176
	C4135	C	0.487307	-0.377110	0.475315
	C4136	C	0.423997	-0.376151	0.462953
	C4137	C	0.414618	-0.375740	0.468634
	C4138	C	0.410223	-0.285631	0.471135
	C4139	C	0.401421	-0.285062	0.474720
	C4140	C	0.396774	-0.374485	0.475959
	C4141	C	0.401155	-0.464597	0.473439
	C4142	C	0.409967	-0.465147	0.469824
	C4143	C	0.387393	-0.373953	0.481464
	C4144	C	0.423741	-0.125997	0.419875
	C4145	C	0.414209	-0.125383	0.415614
	C4146	C	0.409780	-0.035184	0.413768
	C4147	C	0.400890	-0.034504	0.411612
	C4148	C	0.396200	-0.123944	0.411161
	C4149	C	0.400634	-0.214200	0.412831
	C4150	C	0.409518	-0.214927	0.414959
	C4151	C	0.386665	-0.123228	0.406935
	C4152	C	0.449916	-0.124626	0.418994
	C4153	C	0.459306	-0.124934	0.413556
	C4154	C	0.463696	-0.215097	0.410986
	C4155	C	0.472479	-0.215570	0.407364
	C4156	C	0.477138	-0.126131	0.406141
	C4157	C	0.472738	-0.035871	0.408568
	C4158	C	0.463953	-0.035271	0.412219
	C4159	C	0.486534	-0.126690	0.400492
	H4160	H	0.475781	-0.285925	0.405567
	H4161	H	0.460181	-0.284886	0.411879
	H4162	H	0.476890	-0.216529	0.469583
	H4163	H	0.461149	-0.215313	0.465646
	H4164	H	0.436590	-0.375704	0.409944
	H4165	H	0.437436	-0.125197	0.472311
	H4166	H	0.374022	-0.124532	0.472319
	H4167	H	0.499744	-0.375693	0.409624
	H4168	H	0.412855	-0.285104	0.416305
	H4169	H	0.397120	-0.284139	0.412494
	H4170	H	0.398154	-0.214675	0.476743
	H4171	H	0.413723	-0.215578	0.470375
	H4172	H	0.397576	0.035822	0.410231
	H4173	H	0.413304	0.034393	0.414194
	H4174	H	0.413263	-0.535283	0.468024
	H4175	H	0.397682	-0.534454	0.474474
	H4176	H	0.460658	-0.535028	0.468309
	H4177	H	0.476421	-0.536905	0.472184
	H4178	H	0.460643	0.034892	0.414055
	H4179	H	0.476283	0.033606	0.407703
	Al4180	Al	0.436994	-0.000502	0.441205
	Al4181	Al	0.436950	0.249595	0.441113
	Al4182	Al	0.373398	0.250777	0.385527
	Al4183	Al	0.373427	0.000352	0.385641
	O4184	O	0.446423	0.041443	0.460723
	O4185	O	0.436887	0.124820	0.426102
	O4186	O	0.437040	0.374711	0.456238
	O4187	O	0.490938	0.038773	0.477358
	O4188	O	0.427634	0.039539	0.460516
	O4189	O	0.383600	0.042039	0.483442
	O4190	O	0.427806	0.207801	0.461205
	O4191	O	0.427330	0.289424	0.422165
	O4192	O	0.382819	0.292712	0.405284
	O4193	O	0.446575	0.209972	0.460202
	O4194	O	0.446046	0.291972	0.420901
	O4195	O	0.490104	0.288664	0.398077
	O4196	O	0.383765	0.210225	0.483905
	O4197	O	0.427516	0.457562	0.421552
	O4198	O	0.382993	0.461006	0.404782
	O4199	O	0.490312	0.457108	0.398526
	O4200	O	0.446279	0.460031	0.421511
	O4201	O	0.491129	0.207121	0.476809
	O4202	O	0.374334	0.375115	0.488436
	O4203	O	0.499568	0.123915	0.393546
	C4204	C	0.473307	0.214243	0.469268
	C4205	C	0.477760	0.123770	0.471084
	C4206	C	0.473068	0.034221	0.470764
	C4207	C	0.464185	0.034891	0.468533
	C4208	C	0.459742	0.125297	0.466525
	C4209	C	0.464428	0.214910	0.467009
	C4210	C	0.450232	0.125660	0.462187
	C4211	C	0.487300	0.123242	0.475270
	C4212	C	0.424032	0.123804	0.463091
	C4213	C	0.414644	0.124298	0.468597
	C4214	C	0.410246	0.214594	0.471021
	C4215	C	0.401420	0.215181	0.474511
	C4216	C	0.396776	0.125463	0.475800
	C4217	C	0.401171	0.035388	0.473313
	C4218	C	0.409988	0.034715	0.469797
	C4219	C	0.387378	0.126041	0.481370
	C4220	C	0.423695	0.373699	0.420012
	C4221	C	0.414165	0.374449	0.415786
	C4222	C	0.409729	0.464623	0.413916
	C4223	C	0.400846	0.465393	0.411675
	C4224	C	0.396146	0.375877	0.411116
	C4225	C	0.400594	0.285717	0.412869
	C4226	C	0.409481	0.284865	0.415114
	C4227	C	0.386631	0.376687	0.406828
	C4228	C	0.449848	0.375649	0.418943
	C4229	C	0.459257	0.375144	0.413412
	C4230	C	0.463628	0.284946	0.410874
	C4231	C	0.472443	0.284405	0.407312
	C4232	C	0.477114	0.373849	0.406191
	C4233	C	0.472714	0.463970	0.408661
	C4234	C	0.463908	0.464669	0.412209
	C4235	C	0.486520	0.373199	0.400523
	H4236	H	0.475736	0.214125	0.405481
	H4237	H	0.460149	0.215085	0.411796
	H4238	H	0.476834	0.283976	0.469679
	H4239	H	0.461072	0.284954	0.465752
	H4240	H	0.436751	0.124576	0.410023
	H4241	H	0.437010	0.374954	0.472249
	H4242	H	0.374217	0.375668	0.472324
	H4243	H	0.499587	0.123731	0.409701
	H4244	H	0.412815	0.214710	0.416526
	H4245	H	0.397058	0.215909	0.412685
	H4246	H	0.398128	0.285501	0.476287
	H4247	H	0.413743	0.284138	0.470164
	H4248	H	0.397522	0.535803	0.410506
	H4249	H	0.413271	0.534238	0.414356
	H4250	H	0.413279	-0.035543	0.467903
	H4251	H	0.397679	-0.034518	0.474098
	H4252	H	0.460636	-0.034715	0.468471
	H4253	H	0.476406	-0.036220	0.472399
	H4254	H	0.460615	0.534919	0.414169
	H4255	H	0.476195	0.533913	0.407923
	Al4256	Al	0.438064	-0.500581	0.558912
	Al4257	Al	0.438034	-0.250611	0.558715
	Al4258	Al	0.374455	-0.249513	0.503494
	Al4259	Al	0.374439	-0.499550	0.503403
	O4260	O	0.447437	-0.458184	0.578676
	O4261	O	0.437964	-0.375677	0.543660
	O4262	O	0.438165	-0.125934	0.573866
	O4263	O	0.492034	-0.461167	0.595258
	O4264	O	0.428672	-0.460584	0.578287
	O4265	O	0.384652	-0.457864	0.601018
	O4266	O	0.428882	-0.292265	0.578842
	O4267	O	0.428395	-0.211486	0.539802
	O4268	O	0.383924	-0.208189	0.523022
	O4269	O	0.447691	-0.289968	0.577656
	O4270	O	0.447207	-0.208636	0.538636
	O4271	O	0.491228	-0.210819	0.515869
	O4272	O	0.384863	-0.289619	0.601678
	O4273	O	0.428661	-0.043241	0.538910
	O4274	O	0.384054	-0.039849	0.522584
	O4275	O	0.491423	-0.042736	0.516484
	O4276	O	0.447416	-0.040149	0.539475
	O4277	O	0.492211	-0.292815	0.594535
	O4278	O	0.375430	-0.125069	0.606184
	O4279	O	0.500685	-0.375744	0.511631
	C4280	C	0.474387	-0.286228	0.587095
	C4281	C	0.478845	-0.376415	0.588939
	C4282	C	0.474192	-0.466116	0.588290
	C4283	C	0.465298	-0.465402	0.586057
	C4284	C	0.460828	-0.375239	0.584337
	C4285	C	0.465499	-0.285668	0.584884
	C4286	C	0.451299	-0.374393	0.580009
	C4287	C	0.488382	-0.377052	0.593101
	C4288	C	0.425087	-0.376142	0.580922
	C4289	C	0.415714	-0.375838	0.586547
	C4290	C	0.411311	-0.285458	0.588838
	C4291	C	0.402503	-0.284811	0.592232
	C4292	C	0.397850	-0.374407	0.593645
	C4293	C	0.402239	-0.464683	0.591193
	C4294	C	0.411048	-0.465411	0.587797
	C4295	C	0.388452	-0.373966	0.599094
	C4296	C	0.424792	-0.127011	0.537558
	C4297	C	0.415246	-0.126163	0.533394
	C4298	C	0.410823	-0.035710	0.531695
	C4299	C	0.401922	-0.034868	0.529515
	C4300	C	0.397249	-0.124373	0.528775
	C4301	C	0.401672	-0.214887	0.530577
	C4302	C	0.410570	-0.215915	0.532750
	C4303	C	0.387724	-0.124029	0.524629
	C4304	C	0.450990	-0.124561	0.536849
	C4305	C	0.460395	-0.124820	0.531377
	C4306	C	0.464774	-0.215101	0.528916
	C4307	C	0.473593	-0.215701	0.525421
	C4308	C	0.478251	-0.126099	0.524147
	C4309	C	0.473872	-0.035841	0.526681
	C4310	C	0.465051	-0.035253	0.530204
	C4311	C	0.487645	-0.126597	0.518535
	H4312	H	0.476891	-0.285989	0.523480
	H4313	H	0.461273	-0.284917	0.529707
	H4314	H	0.477917	-0.216375	0.587525
	H4315	H	0.462153	-0.215645	0.583576
	H4316	H	0.437851	-0.375566	0.527598
	H4317	H	0.438265	-0.125715	0.590007
	H4318	H	0.375240	-0.124658	0.590156
	H4319	H	0.500857	-0.375301	0.527609
	H4320	H	0.413901	-0.286234	0.533896
	H4321	H	0.398140	-0.284644	0.530206
	H4322	H	0.399189	-0.214525	0.594017
	H4323	H	0.414808	-0.215738	0.588012
	H4324	H	0.398608	0.035282	0.528289
	H4325	H	0.414346	0.034099	0.531999
	H4326	H	0.414367	-0.535628	0.586109
	H4327	H	0.398741	-0.534591	0.592103
	H4328	H	0.461797	-0.535506	0.585662
	H4329	H	0.477527	-0.536458	0.589635
	H4330	H	0.461748	0.034983	0.532061
	H4331	H	0.477343	0.034138	0.525809
	Al4332	Al	0.438042	-0.000544	0.558776
	Al4333	Al	0.438035	0.249540	0.558823
	Al4334	Al	0.374457	0.250348	0.503449
	Al4335	Al	0.374454	0.000324	0.503523
	O4336	O	0.447411	0.042069	0.578704
	O4337	O	0.437940	0.124541	0.543788
	O4338	O	0.438099	0.374667	0.573889
	O4339	O	0.491969	0.038000	0.595323
	O4340	O	0.428659	0.039355	0.578170
	O4341	O	0.384645	0.042522	0.601200
	O4342	O	0.428863	0.207385	0.578794
	O4343	O	0.428404	0.289075	0.539883
	O4344	O	0.383912	0.292289	0.523105
	O4345	O	0.447674	0.210279	0.577797
	O4346	O	0.447153	0.291841	0.538661
	O4347	O	0.491241	0.288882	0.515984
	O4348	O	0.384897	0.210783	0.601703
	O4349	O	0.428633	0.457487	0.539200
	O4350	O	0.384088	0.460595	0.522491
	O4351	O	0.491435	0.457025	0.516768
	O4352	O	0.447415	0.460050	0.539555
	O4353	O	0.492206	0.206107	0.594509
	O4354	O	0.375420	0.374994	0.606110
	O4355	O	0.500638	0.124413	0.511459
	C4356	C	0.474371	0.213388	0.587191
	C4357	C	0.478812	0.123116	0.588941
	C4358	C	0.474113	0.033729	0.588316
	C4359	C	0.465235	0.034524	0.586039
	C4360	C	0.460792	0.124774	0.584350
	C4361	C	0.465483	0.214110	0.584945
	C4362	C	0.451285	0.125871	0.579995
	C4363	C	0.488340	0.122490	0.593180
	C4364	C	0.425076	0.123523	0.580729
	C4365	C	0.415684	0.124057	0.586393
	C4366	C	0.411287	0.214287	0.588650
	C4367	C	0.402496	0.215134	0.592281
	C4368	C	0.397854	0.125618	0.593772
	C4369	C	0.402238	0.035354	0.591454
	C4370	C	0.411037	0.034651	0.587852
	C4371	C	0.388449	0.126373	0.599190
	C4372	C	0.424758	0.373464	0.537776
	C4373	C	0.415265	0.374134	0.533561
	C4374	C	0.410855	0.464445	0.531676
	C4375	C	0.401968	0.465270	0.529369
	C4376	C	0.397265	0.375813	0.528803
	C4377	C	0.401685	0.285623	0.530746
	C4378	C	0.410560	0.284720	0.533053
	C4379	C	0.387751	0.376234	0.524536
	C4380	C	0.450966	0.375641	0.536810
	C4381	C	0.460383	0.375246	0.531244
	C4382	C	0.464761	0.284985	0.528808
	C4383	C	0.473572	0.284315	0.525310
	C4384	C	0.478239	0.373785	0.524099
	C4385	C	0.473888	0.464039	0.526666
	C4386	C	0.465062	0.464697	0.530161
	C4387	C	0.487645	0.372960	0.518627
	H4388	H	0.476853	0.213608	0.523565
	H4389	H	0.461239	0.215342	0.529637
	H4390	H	0.477892	0.283050	0.587774
	H4391	H	0.462147	0.284356	0.583712
	H4392	H	0.437882	0.124680	0.527701
	H4393	H	0.438063	0.374739	0.589975
	H4394	H	0.375366	0.374664	0.590036
	H4395	H	0.500804	0.124469	0.527595
	H4396	H	0.413874	0.214266	0.534414
	H4397	H	0.398149	0.216053	0.530369
	H4398	H	0.399195	0.285575	0.593987
	H4399	H	0.414793	0.283950	0.587634
	H4400	H	0.398651	0.535676	0.527907
	H4401	H	0.414399	0.533972	0.532014
	H4402	H	0.414342	-0.035692	0.586212
	H4403	H	0.398735	-0.034492	0.592585
	H4404	H	0.461702	-0.035268	0.585659
	H4405	H	0.477436	-0.036510	0.589707
	H4406	H	0.461800	0.535041	0.532123
	H4407	H	0.477411	0.533672	0.525927
	Al4408	Al	0.439103	-0.500686	0.676960
	Al4409	Al	0.439092	-0.250466	0.676815
	Al4410	Al	0.375535	-0.250110	0.621224
	Al4411	Al	0.375513	-0.500249	0.621172
	O4412	O	0.448499	-0.458493	0.696671
	O4413	O	0.438938	-0.375891	0.661812
	O4414	O	0.439155	-0.125242	0.691904
	O4415	O	0.493007	-0.462276	0.713527
	O4416	O	0.429759	-0.460656	0.696371
	O4417	O	0.385774	-0.458454	0.719534
	O4418	O	0.429939	-0.292209	0.696902
	O4419	O	0.429448	-0.210836	0.657766
	O4420	O	0.384922	-0.208062	0.641063
	O4421	O	0.448701	-0.290293	0.695827
	O4422	O	0.448233	-0.208898	0.656819
	O4423	O	0.492233	-0.211267	0.633910
	O4424	O	0.385915	-0.290196	0.719866
	O4425	O	0.429635	-0.042776	0.657185
	O4426	O	0.385105	-0.039885	0.640473
	O4427	O	0.492419	-0.042894	0.634395
	O4428	O	0.448398	-0.040716	0.657143
	O4429	O	0.493216	-0.293845	0.712792
	O4430	O	0.376490	-0.124681	0.724236
	O4431	O	0.501698	-0.376102	0.629438
	C4432	C	0.475446	-0.286858	0.705163
	C4433	C	0.479859	-0.377210	0.707073
	C4434	C	0.475168	-0.466627	0.706603
	C4435	C	0.466294	-0.465788	0.704336
	C4436	C	0.461874	-0.375494	0.702357
	C4437	C	0.466566	-0.286162	0.702893
	C4438	C	0.452348	-0.374564	0.698116
	C4439	C	0.489397	-0.377980	0.711327
	C4440	C	0.426155	-0.376422	0.698870
	C4441	C	0.416752	-0.376066	0.704351
	C4442	C	0.412364	-0.285825	0.706871
	C4443	C	0.403560	-0.285111	0.710473
	C4444	C	0.398919	-0.374707	0.711709
	C4445	C	0.403307	-0.464954	0.709327
	C4446	C	0.412112	-0.465535	0.705748
	C4447	C	0.389534	-0.374346	0.717368
	C4448	C	0.425791	-0.126698	0.655704
	C4449	C	0.416271	-0.126137	0.651477
	C4450	C	0.411840	-0.035728	0.649730
	C4451	C	0.402951	-0.034891	0.647468
	C4452	C	0.398274	-0.124393	0.646777
	C4453	C	0.402695	-0.214618	0.648569
	C4454	C	0.411583	-0.215506	0.650841
	C4455	C	0.388749	-0.124175	0.642606
	C4456	C	0.452019	-0.124856	0.654730
	C4457	C	0.461418	-0.125424	0.649343
	C4458	C	0.465804	-0.215588	0.646857
	C4459	C	0.474611	-0.216289	0.643284
	C4460	C	0.479273	-0.126778	0.642113
	C4461	C	0.474891	-0.036615	0.644739
	C4462	C	0.466084	-0.035957	0.648295
	C4463	C	0.488641	-0.127046	0.636470
	H4464	H	0.477904	-0.286302	0.641316
	H4465	H	0.462309	-0.285481	0.647599
	H4466	H	0.478955	-0.217282	0.705550
	H4467	H	0.463234	-0.216040	0.701550
	H4468	H	0.438685	-0.376485	0.645666
	H4469	H	0.439149	-0.125288	0.708044
	H4470	H	0.376339	-0.124246	0.708109
	H4471	H	0.502011	-0.376530	0.645525
	H4472	H	0.414882	-0.286015	0.652156
	H4473	H	0.399158	-0.284155	0.648224
	H4474	H	0.400266	-0.214858	0.712312
	H4475	H	0.415860	-0.215960	0.706085
	H4476	H	0.399621	0.035475	0.646255
	H4477	H	0.415379	0.033758	0.650103
	H4478	H	0.415416	-0.535936	0.704000
	H4479	H	0.399824	-0.534728	0.710242
	H4480	H	0.462778	-0.535388	0.704152
	H4481	H	0.478505	-0.536799	0.708139
	H4482	H	0.462769	0.034105	0.650219
	H4483	H	0.478362	0.033352	0.643940
	Al4484	Al	0.439091	-0.000633	0.676726
	Al4485	Al	0.439104	0.249212	0.676858
	Al4486	Al	0.375538	0.249894	0.621258
	Al4487	Al	0.375499	0.000052	0.621249
	O4488	O	0.448521	0.041219	0.696479
	O4489	O	0.439005	0.124139	0.661718
	O4490	O	0.439185	0.374110	0.691971
	O4491	O	0.493026	0.037774	0.713483
	O4492	O	0.429769	0.038829	0.696302
	O4493	O	0.385752	0.041710	0.719309
	O4494	O	0.429973	0.206944	0.696936
	O4495	O	0.429482	0.288911	0.657670
	O4496	O	0.384986	0.292140	0.640824
	O4497	O	0.448711	0.209648	0.695987
	O4498	O	0.448274	0.291066	0.657022
	O4499	O	0.492219	0.287939	0.633593
	O4500	O	0.385964	0.209857	0.719955
	O4501	O	0.429673	0.457229	0.657241
	O4502	O	0.385136	0.460345	0.640228
	O4503	O	0.492453	0.456217	0.634316
	O4504	O	0.448447	0.459377	0.657543
	O4505	O	0.493210	0.206223	0.712924
	O4506	O	0.376492	0.374746	0.724370
	O4507	O	0.501723	0.123852	0.629418
	C4508	C	0.475440	0.213015	0.705138
	C4509	C	0.479860	0.122714	0.707112
	C4510	C	0.475174	0.033162	0.706659
	C4511	C	0.466284	0.034104	0.704396
	C4512	C	0.461861	0.124503	0.702435
	C4513	C	0.466553	0.214008	0.702885
	C4514	C	0.452339	0.125250	0.698017
	C4515	C	0.489382	0.122286	0.711418
	C4516	C	0.426174	0.123081	0.698770
	C4517	C	0.416781	0.123648	0.704489
	C4518	C	0.412397	0.213780	0.706960
	C4519	C	0.403589	0.214558	0.710583
	C4520	C	0.398937	0.125030	0.711850
	C4521	C	0.403319	0.034850	0.709372
	C4522	C	0.412120	0.034169	0.705797
	C4523	C	0.389542	0.125608	0.717441
	C4524	C	0.425841	0.373282	0.655679
	C4525	C	0.416326	0.373845	0.651394
	C4526	C	0.411899	0.464115	0.649647
	C4527	C	0.403026	0.464828	0.647352
	C4528	C	0.398319	0.375489	0.646697
	C4529	C	0.402750	0.285036	0.648352
	C4530	C	0.411633	0.284325	0.650648
	C4531	C	0.388814	0.376118	0.642348
	C4532	C	0.452049	0.375058	0.655003
	C4533	C	0.461425	0.374808	0.649368
	C4534	C	0.465800	0.284500	0.646820
	C4535	C	0.474596	0.283428	0.643159
	C4536	C	0.479273	0.373050	0.641903
	C4537	C	0.474894	0.463233	0.644461
	C4538	C	0.466091	0.464234	0.648110
	C4539	C	0.488658	0.372420	0.636315
	H4540	H	0.477849	0.213056	0.641175
	H4541	H	0.462254	0.215002	0.647642
	H4542	H	0.478972	0.282518	0.705507
	H4543	H	0.463236	0.284335	0.701443
	H4544	H	0.438879	0.124400	0.645561
	H4545	H	0.439337	0.374176	0.708078
	H4546	H	0.376396	0.375050	0.708356
	H4547	H	0.501873	0.124347	0.645605
	H4548	H	0.414977	0.213994	0.651837
	H4549	H	0.399228	0.215449	0.647753
	H4550	H	0.400319	0.284584	0.712482
	H4551	H	0.415912	0.283432	0.706078
	H4552	H	0.399684	0.535125	0.645939
	H4553	H	0.415436	0.533917	0.649967
	H4554	H	0.415412	-0.036318	0.704003
	H4555	H	0.399819	-0.034879	0.710342
	H4556	H	0.462751	-0.035576	0.704085
	H4557	H	0.478485	-0.037282	0.708147
	H4558	H	0.462846	0.534784	0.649990
	H4559	H	0.478400	0.532743	0.643526
	Al4560	Al	0.440080	-0.501132	0.795193
	Al4561	Al	0.440094	-0.251131	0.795253
	Al4562	Al	0.376586	-0.250054	0.739332
	Al4563	Al	0.376607	-0.499948	0.739463
	O4564	O	0.449460	-0.459172	0.815124
	O4565	O	0.439980	-0.376164	0.780169
	O4566	O	0.440209	-0.126204	0.810354
	O4567	O	0.493926	-0.464328	0.831517
	O4568	O	0.430719	-0.461228	0.814429
	O4569	O	0.386748	-0.458115	0.837709
	O4570	O	0.430944	-0.293001	0.815309
	O4571	O	0.430477	-0.211924	0.776037
	O4572	O	0.386026	-0.207962	0.758931
	O4573	O	0.449683	-0.290939	0.814401
	O4574	O	0.449224	-0.209186	0.775187
	O4575	O	0.493250	-0.211941	0.752115
	O4576	O	0.386955	-0.289704	0.838366
	O4577	O	0.430721	-0.043696	0.775534
	O4578	O	0.386212	-0.039736	0.758432
	O4579	O	0.493441	-0.043501	0.752712
	O4580	O	0.449473	-0.040861	0.776020
	O4581	O	0.494219	-0.295723	0.830782
	O4582	O	0.377540	-0.125138	0.842701
	O4583	O	0.502685	-0.377036	0.747739
	C4584	C	0.476412	-0.288175	0.823543
	C4585	C	0.480803	-0.378567	0.825382
	C4586	C	0.476089	-0.467780	0.825020
	C4587	C	0.467205	-0.466473	0.822802
	C4588	C	0.462818	-0.376107	0.820896
	C4589	C	0.467525	-0.286879	0.821335
	C4590	C	0.453300	-0.375428	0.816591
	C4591	C	0.490334	-0.379696	0.829445
	C4592	C	0.427144	-0.376932	0.817160
	C4593	C	0.417766	-0.376207	0.822770
	C4594	C	0.413407	-0.285930	0.825367
	C4595	C	0.404608	-0.285120	0.829022
	C4596	C	0.399935	-0.374643	0.830207
	C4597	C	0.404293	-0.464881	0.827667
	C4598	C	0.413096	-0.465644	0.823991
	C4599	C	0.390539	-0.373982	0.835822
	C4600	C	0.426872	-0.127548	0.774019
	C4601	C	0.417360	-0.126604	0.769642
	C4602	C	0.412955	-0.036158	0.767835
	C4603	C	0.404068	-0.034973	0.765566
	C4604	C	0.399370	-0.124483	0.764914
	C4605	C	0.403770	-0.215044	0.766719
	C4606	C	0.412659	-0.216097	0.769016
	C4607	C	0.389854	-0.123924	0.760505
	C4608	C	0.453032	-0.125290	0.773270
	C4609	C	0.462424	-0.125771	0.767530
	C4610	C	0.466813	-0.216008	0.765127
	C4611	C	0.475621	-0.216571	0.761563
	C4612	C	0.480261	-0.127025	0.760218
	C4613	C	0.475882	-0.036791	0.762716
	C4614	C	0.467075	-0.036256	0.766359
	C4615	C	0.489658	-0.127726	0.754590
	H4616	H	0.478909	-0.286900	0.759839
	H4617	H	0.463318	-0.285826	0.766155
	H4618	H	0.479953	-0.218639	0.823737
	H4619	H	0.464212	-0.216578	0.819837
	H4620	H	0.439678	-0.376311	0.764080
	H4621	H	0.440368	-0.126469	0.826507
	H4622	H	0.377502	-0.125734	0.826615
	H4623	H	0.502950	-0.376970	0.763821
	H4624	H	0.415977	-0.286559	0.770340
	H4625	H	0.400244	-0.284655	0.766264
	H4626	H	0.401334	-0.214816	0.830979
	H4627	H	0.416899	-0.216569	0.824474
	H4628	H	0.400743	0.035554	0.764263
	H4629	H	0.416508	0.033530	0.768285
	H4630	H	0.416339	-0.535630	0.821974
	H4631	H	0.400779	-0.534718	0.828504
	H4632	H	0.463650	-0.535840	0.822507
	H4633	H	0.479392	-0.538294	0.826420
	H4634	H	0.463788	0.033921	0.768355
	H4635	H	0.479370	0.032935	0.761955
	Al4636	Al	0.440091	-0.001122	0.795331
	Al4637	Al	0.440098	0.249028	0.795126
	Al4638	Al	0.376602	0.249947	0.739454
	Al4639	Al	0.376582	-0.000104	0.739321
	O4640	O	0.449399	0.041410	0.815312
	O4641	O	0.439958	0.123598	0.780159
	O4642	O	0.440250	0.373796	0.810243
	O4643	O	0.493966	0.035762	0.831415
	O4644	O	0.430703	0.038519	0.814554
	O4645	O	0.386787	0.041823	0.837912
	O4646	O	0.430930	0.207006	0.815194
	O4647	O	0.430458	0.288148	0.776103
	O4648	O	0.386028	0.291814	0.758966
	O4649	O	0.449711	0.209540	0.814278
	O4650	O	0.449254	0.291058	0.775067
	O4651	O	0.493238	0.288078	0.752252
	O4652	O	0.386940	0.209881	0.838229
	O4653	O	0.430758	0.456426	0.775410
	O4654	O	0.386200	0.460219	0.758588
	O4655	O	0.493436	0.456468	0.752718
	O4656	O	0.449440	0.459291	0.775784
	O4657	O	0.494224	0.203960	0.830505
	O4658	O	0.377504	0.374619	0.842630
	O4659	O	0.502665	0.123430	0.747838
	C4660	C	0.476420	0.211689	0.823660
	C4661	C	0.480826	0.121271	0.825309
	C4662	C	0.476097	0.032281	0.824877
	C4663	C	0.467211	0.033603	0.822675
	C4664	C	0.462804	0.123957	0.820919
	C4665	C	0.467529	0.213026	0.821447
	C4666	C	0.453312	0.125025	0.816555
	C4667	C	0.490342	0.120357	0.829323
	C4668	C	0.427143	0.123222	0.817217
	C4669	C	0.417763	0.123485	0.822712
	C4670	C	0.413408	0.213843	0.825275
	C4671	C	0.404610	0.214591	0.828819
	C4672	C	0.399940	0.125135	0.830126
	C4673	C	0.404312	0.034918	0.827533
	C4674	C	0.413105	0.033992	0.823931
	C4675	C	0.390545	0.125731	0.835691
	C4676	C	0.426879	0.372824	0.773892
	C4677	C	0.417363	0.373457	0.769700
	C4678	C	0.412941	0.463773	0.767815
	C4679	C	0.404060	0.464535	0.765525
	C4680	C	0.399373	0.375056	0.764937
	C4681	C	0.403806	0.284737	0.766774
	C4682	C	0.412685	0.283890	0.769067
	C4683	C	0.389836	0.375807	0.760591
	C4684	C	0.453033	0.375222	0.773110
	C4685	C	0.462417	0.374598	0.767555
	C4686	C	0.466790	0.284353	0.765095
	C4687	C	0.475607	0.283777	0.761534
	C4688	C	0.480264	0.373283	0.760279
	C4689	C	0.475886	0.463613	0.762643
	C4690	C	0.467071	0.464201	0.766208
	C4691	C	0.489651	0.372616	0.754730
	H4692	H	0.478897	0.213273	0.759847
	H4693	H	0.463314	0.214448	0.766131
	H4694	H	0.479973	0.281213	0.824037
	H4695	H	0.464273	0.283608	0.820044
	H4696	H	0.439788	0.123443	0.764026
	H4697	H	0.440588	0.373907	0.826327
	H4698	H	0.377527	0.374359	0.826427
	H4699	H	0.502791	0.123910	0.764011
	H4700	H	0.416009	0.213439	0.770422
	H4701	H	0.400283	0.215164	0.766355
	H4702	H	0.401322	0.285151	0.830569
	H4703	H	0.416922	0.283350	0.824461
	H4704	H	0.400730	0.534737	0.764145
	H4705	H	0.416467	0.533378	0.768239
	H4706	H	0.416394	-0.036472	0.822050
	H4707	H	0.400786	-0.034832	0.828269
	H4708	H	0.463630	-0.035933	0.822269
	H4709	H	0.479373	-0.038275	0.826243
	H4710	H	0.463815	0.534438	0.768106
	H4711	H	0.479403	0.533257	0.761849
	Al4712	Al	0.440902	-0.502239	0.913696
	Al4713	Al	0.440906	-0.252981	0.913696
	Al4714	Al	0.377600	-0.250238	0.857827
	Al4715	Al	0.377615	-0.500252	0.857665
	O4716	O	0.449582	-0.460648	0.935874
	O4717	O	0.441015	-0.377721	0.898799
	O4718	O	0.440605	-0.127915	0.928872
	O4719	O	0.487668	-0.459506	1.001985
	O4720	O	0.431429	-0.463312	0.932610
	O4721	O	0.387794	-0.459880	0.957949
	O4722	O	0.431590	-0.294689	0.933190
	O4723	O	0.431508	-0.212667	0.893661
	O4724	O	0.386990	-0.207978	0.877657
	O4725	O	0.449793	-0.292345	0.935235
	O4726	O	0.450215	-0.210425	0.894762
	O4727	O	0.493900	-0.214187	0.870376
	O4728	O	0.388004	-0.291362	0.958547
	O4729	O	0.431722	-0.044303	0.893167
	O4730	O	0.387207	-0.039701	0.877013
	O4731	O	0.494096	-0.045761	0.871107
	O4732	O	0.450434	-0.042359	0.895529
	O4733	O	0.487843	-0.291524	1.001412
	O4734	O	0.378509	-0.126352	0.961792
	O4735	O	0.503118	-0.378629	0.866433
	C4736	C	0.472657	-0.286769	0.974650
	C4737	C	0.476429	-0.375936	0.981767
	C4738	C	0.472346	-0.465210	0.975713
	C4739	C	0.464774	-0.465446	0.962606
	C4740	C	0.461055	-0.376226	0.955318
	C4741	C	0.465103	-0.286894	0.961506
	C4742	C	0.452904	-0.376282	0.941036
	C4743	C	0.484571	-0.375696	0.996121
	C4744	C	0.427878	-0.378681	0.935540
	C4745	C	0.418599	-0.378535	0.941957
	C4746	C	0.414279	-0.288250	0.944942
	C4747	C	0.405551	-0.287313	0.949272
	C4748	C	0.400930	-0.376727	0.950617
	C4749	C	0.405260	-0.467043	0.948091
	C4750	C	0.413995	-0.467969	0.943770
	C4751	C	0.391577	-0.375960	0.956109
	C4752	C	0.427891	-0.128196	0.891831
	C4753	C	0.418354	-0.127444	0.887836
	C4754	C	0.413954	-0.036920	0.885914
	C4755	C	0.405082	-0.035981	0.883738
	C4756	C	0.400359	-0.125052	0.883416
	C4757	C	0.404756	-0.215566	0.885444
	C4758	C	0.413635	-0.216596	0.887592
	C4759	C	0.390846	-0.124209	0.879065
	C4760	C	0.454020	-0.126677	0.893099
	C4761	C	0.463366	-0.127403	0.887840
	C4762	C	0.467687	-0.217462	0.885145
	C4763	C	0.476421	-0.218241	0.881062
	C4764	C	0.481058	-0.128994	0.879529
	C4765	C	0.476752	-0.038839	0.882519
	C4766	C	0.468008	-0.038114	0.886627
	C4767	C	0.490357	-0.129702	0.873279
	H4768	H	0.479669	-0.288428	0.878830
	H4769	H	0.464188	-0.286712	0.886209
	H4770	H	0.475704	-0.217708	0.979397
	H4771	H	0.462270	-0.217895	0.955984
	H4772	H	0.440991	-0.377539	0.882670
	H4773	H	0.440059	-0.128292	0.944851
	H4774	H	0.378473	-0.126715	0.945699
	H4775	H	0.502660	-0.378586	0.882533
	H4776	H	0.416943	-0.286680	0.889185
	H4777	H	0.401206	-0.285059	0.885284
	H4778	H	0.402270	-0.217272	0.951530
	H4779	H	0.417777	-0.218894	0.943866
	H4780	H	0.401750	0.034178	0.882225
	H4781	H	0.417505	0.032592	0.886169
	H4782	H	0.417274	-0.537980	0.941665
	H4783	H	0.401749	-0.536165	0.949353
	H4784	H	0.461702	-0.534385	0.957929
	H4785	H	0.475140	-0.534253	0.981331
	H4786	H	0.464735	0.031744	0.888843
	H4787	H	0.480278	0.030556	0.881440
	Al4788	Al	0.440954	-0.002322	0.913769
	Al4789	Al	0.440896	0.246826	0.913859
	Al4790	Al	0.377603	0.249719	0.857666
	Al4791	Al	0.377598	-0.000123	0.857747
	O4792	O	0.449624	0.039119	0.935819
	O4793	O	0.440977	0.122161	0.898904
	O4794	O	0.440677	0.372160	0.928744
	O4795	O	0.487677	0.040568	1.002000
	O4796	O	0.431420	0.037050	0.932718
	O4797	O	0.387762	0.040738	0.957608
	O4798	O	0.431636	0.205602	0.933488
	O4799	O	0.431531	0.286701	0.893800
	O4800	O	0.386986	0.291354	0.877414
	O4801	O	0.449745	0.207381	0.935383
	O4802	O	0.450269	0.289287	0.895035
	O4803	O	0.493898	0.285825	0.870347
	O4804	O	0.388021	0.209249	0.958719
	O4805	O	0.431774	0.455252	0.893037
	O4806	O	0.387195	0.459791	0.876853
	O4807	O	0.494082	0.454303	0.870972
	O4808	O	0.450473	0.457730	0.895539
	O4809	O	0.487913	0.208672	1.001180
	O4810	O	0.378509	0.373563	0.961911
	O4811	O	0.503110	0.121029	0.866326
	C4812	C	0.472728	0.213149	0.974433
	C4813	C	0.476425	0.124286	0.981801
	C4814	C	0.472330	0.035216	0.975861
	C4815	C	0.464743	0.034967	0.962818
	C4816	C	0.461051	0.123803	0.955405
	C4817	C	0.465137	0.212833	0.961366
	C4818	C	0.452887	0.123483	0.941141
	C4819	C	0.484568	0.124686	0.996065
	C4820	C	0.427903	0.121487	0.935700
	C4821	C	0.418613	0.122056	0.942063
	C4822	C	0.414310	0.212363	0.945181
	C4823	C	0.405571	0.213169	0.949420
	C4824	C	0.400921	0.123858	0.950671
	C4825	C	0.405241	0.033682	0.947876
	C4826	C	0.413982	0.032685	0.943649
	C4827	C	0.391569	0.124774	0.956093
	C4828	C	0.427903	0.371218	0.891733
	C4829	C	0.418371	0.372439	0.887724
	C4830	C	0.413969	0.462875	0.885881
	C4831	C	0.405061	0.463886	0.883788
	C4832	C	0.400344	0.374562	0.883366
	C4833	C	0.404755	0.284133	0.885324
	C4834	C	0.413658	0.283182	0.887450
	C4835	C	0.390831	0.375316	0.878962
	C4836	C	0.454037	0.373151	0.893225
	C4837	C	0.463374	0.372560	0.887874
	C4838	C	0.467678	0.282312	0.885200
	C4839	C	0.476430	0.281446	0.881051
	C4840	C	0.481054	0.370640	0.879494
	C4841	C	0.476750	0.460797	0.882565
	C4842	C	0.468003	0.461782	0.886702
	C4843	C	0.490349	0.370163	0.873171
	H4844	H	0.479689	0.211246	0.878783
	H4845	H	0.464166	0.213110	0.886263
	H4846	H	0.475827	0.282085	0.978982
	H4847	H	0.462341	0.281748	0.955706
	H4848	H	0.440822	0.122474	0.882756
	H4849	H	0.440235	0.371710	0.944855
	H4850	H	0.378392	0.374062	0.945772
	H4851	H	0.502512	0.120784	0.882375
	H4852	H	0.416954	0.212665	0.888974
	H4853	H	0.401215	0.214580	0.885164
	H4854	H	0.402352	0.283226	0.951807
	H4855	H	0.417810	0.281931	0.943991
	H4856	H	0.401775	0.534378	0.882412
	H4857	H	0.417527	0.532547	0.886156
	H4858	H	0.417226	-0.037314	0.941243
	H4859	H	0.401707	-0.035399	0.949010
	H4860	H	0.461640	-0.034111	0.958394
	H4861	H	0.475093	-0.033906	0.981592
	H4862	H	0.464751	0.531710	0.889008
	H4863	H	0.480270	0.530121	0.881505
	Al4864	Al	0.559935	-0.501335	0.079687
	Al4865	Al	0.559898	-0.251283	0.079737
	Al4866	Al	0.496565	-0.249873	0.023312
	Al4867	Al	0.496593	-0.499119	0.023365
	O4868	O	0.569289	-0.459169	0.099513
	O4869	O	0.559785	-0.376274	0.064626
	O4870	O	0.559967	-0.126506	0.094779
	O4871	O	0.613819	-0.461555	0.116587
	O4872	O	0.550559	-0.461545	0.099166
	O4873	O	0.506610	-0.458080	0.122661
	O4874	O	0.550763	-0.293330	0.099786
	O4875	O	0.550312	-0.211651	0.060615
	O4876	O	0.505788	-0.207169	0.044035
	O4877	O	0.569495	-0.290935	0.098759
	O4878	O	0.569091	-0.209359	0.059735
	O4879	O	0.613079	-0.211263	0.036742
	O4880	O	0.506825	-0.289723	0.123488
	O4881	O	0.550550	-0.043354	0.059847
	O4882	O	0.506044	-0.038902	0.043176
	O4883	O	0.613241	-0.043014	0.037349
	O4884	O	0.569274	-0.040994	0.060354
	O4885	O	0.613965	-0.293135	0.116121
	O4886	O	0.497306	-0.125259	0.127712
	O4887	O	0.622463	-0.376805	0.032282
	C4888	C	0.596181	-0.286514	0.108453
	C4889	C	0.600648	-0.376563	0.110216
	C4890	C	0.595992	-0.466285	0.109407
	C4891	C	0.587109	-0.465897	0.107055
	C4892	C	0.582643	-0.375853	0.105272
	C4893	C	0.587295	-0.286153	0.106077
	C4894	C	0.573146	-0.375294	0.100924
	C4895	C	0.610154	-0.377086	0.114563
	C4896	C	0.546969	-0.377266	0.101849
	C4897	C	0.537586	-0.376662	0.107339
	C4898	C	0.533237	-0.286333	0.109993
	C4899	C	0.524433	-0.285329	0.113657
	C4900	C	0.519756	-0.374749	0.114956
	C4901	C	0.524128	-0.465152	0.112441
	C4902	C	0.532933	-0.466171	0.108754
	C4903	C	0.510391	-0.373969	0.120663
	C4904	C	0.546685	-0.127128	0.058437
	C4905	C	0.537181	-0.126248	0.054009
	C4906	C	0.532756	-0.035983	0.052164
	C4907	C	0.523875	-0.035066	0.049937
	C4908	C	0.519168	-0.124270	0.049487
	C4909	C	0.523593	-0.214588	0.051327
	C4910	C	0.532470	-0.215456	0.053590
	C4911	C	0.509655	-0.123636	0.045283
	C4912	C	0.572856	-0.125286	0.057701
	C4913	C	0.582237	-0.125683	0.052181
	C4914	C	0.586634	-0.215906	0.049708
	C4915	C	0.595436	-0.216330	0.046101
	C4916	C	0.600068	-0.126701	0.044769
	C4917	C	0.595668	-0.036538	0.047187
	C4918	C	0.586863	-0.036131	0.050801
	C4919	C	0.609472	-0.127029	0.039287
	H4920	H	0.598781	-0.286550	0.044417
	H4921	H	0.583165	-0.285809	0.050740
	H4922	H	0.599668	-0.216677	0.109101
	H4923	H	0.583927	-0.215994	0.104865
	H4924	H	0.559537	-0.376462	0.048546
	H4925	H	0.560047	-0.126669	0.110920
	H4926	H	0.497109	-0.125309	0.111671
	H4927	H	0.622609	-0.376893	0.048341
	H4928	H	0.535798	-0.285974	0.055085
	H4929	H	0.520043	-0.283963	0.050950
	H4930	H	0.521153	-0.214869	0.115409
	H4931	H	0.536746	-0.216425	0.109003
	H4932	H	0.520576	0.035205	0.048392
	H4933	H	0.536313	0.033557	0.052470
	H4934	H	0.536215	-0.536594	0.106781
	H4935	H	0.520626	-0.534826	0.113194
	H4936	H	0.583620	-0.535497	0.106590
	H4937	H	0.599359	-0.536267	0.110782
	H4938	H	0.583562	0.033879	0.052666
	H4939	H	0.599136	0.033339	0.046378
	Al4940	Al	0.559881	-0.001469	0.079736
	Al4941	Al	0.559890	0.248835	0.079738
	Al4942	Al	0.496556	0.249932	0.023297
	Al4943	Al	0.496589	0.000760	0.023237
	O4944	O	0.569274	0.040616	0.099531
	O4945	O	0.559773	0.123694	0.064761
	O4946	O	0.559974	0.374116	0.094793
	O4947	O	0.613815	0.037993	0.116492
	O4948	O	0.550537	0.038553	0.099175
	O4949	O	0.506601	0.041468	0.122734
	O4950	O	0.550753	0.206888	0.099864
	O4951	O	0.550297	0.288812	0.060649
	O4952	O	0.505707	0.293099	0.044185
	O4953	O	0.569494	0.208986	0.098809
	O4954	O	0.569057	0.290568	0.059612
	O4955	O	0.613085	0.288481	0.036771
	O4956	O	0.506813	0.209546	0.123337
	O4957	O	0.550545	0.456933	0.059787
	O4958	O	0.505991	0.461324	0.043380
	O4959	O	0.613241	0.456737	0.037354
	O4960	O	0.569260	0.458823	0.060333
	O4961	O	0.613961	0.206661	0.116049
	O4962	O	0.497388	0.374710	0.127638
	O4963	O	0.622515	0.123583	0.032359
	C4964	C	0.596182	0.213020	0.108573
	C4965	C	0.600626	0.122740	0.110203
	C4966	C	0.595962	0.033136	0.109457
	C4967	C	0.587075	0.033619	0.107113
	C4968	C	0.582629	0.123897	0.105362
	C4969	C	0.587296	0.213491	0.106189
	C4970	C	0.573122	0.124536	0.100937
	C4971	C	0.610146	0.122389	0.114495
	C4972	C	0.546962	0.123002	0.101849
	C4973	C	0.537588	0.123382	0.107531
	C4974	C	0.533209	0.213659	0.110075
	C4975	C	0.524414	0.214402	0.113735
	C4976	C	0.519761	0.124738	0.114996
	C4977	C	0.524141	0.034552	0.112493
	C4978	C	0.532926	0.033922	0.108824
	C4979	C	0.510385	0.125368	0.120734
	C4980	C	0.546683	0.373023	0.058452
	C4981	C	0.537147	0.373814	0.054162
	C4982	C	0.532746	0.464006	0.052248
	C4983	C	0.523861	0.464891	0.050020
	C4984	C	0.519147	0.375575	0.049580
	C4985	C	0.523559	0.285144	0.051281
	C4986	C	0.532449	0.284228	0.053509
	C4987	C	0.509604	0.376852	0.045532
	C4988	C	0.572842	0.374443	0.057742
	C4989	C	0.582247	0.373980	0.052189
	C4990	C	0.586673	0.284062	0.049931
	C4991	C	0.595476	0.283559	0.046431
	C4992	C	0.600101	0.373084	0.045041
	C4993	C	0.595696	0.463090	0.047391
	C4994	C	0.586884	0.463579	0.050880
	C4995	C	0.609472	0.372724	0.039425
	H4996	H	0.598748	0.213154	0.044643
	H4997	H	0.583181	0.214200	0.050843
	H4998	H	0.599679	0.282993	0.109112
	H4999	H	0.583956	0.283966	0.104990
	H5000	H	0.559613	0.123358	0.048635
	H5001	H	0.560056	0.373916	0.110851
	H5002	H	0.497262	0.374548	0.111653
	H5003	H	0.622804	0.123873	0.048410
	H5004	H	0.535793	0.213802	0.054935
	H5005	H	0.520045	0.215559	0.050966
	H5006	H	0.521140	0.284384	0.115771
	H5007	H	0.536714	0.283175	0.109157
	H5008	H	0.520543	0.535219	0.048667
	H5009	H	0.536256	0.533831	0.052600
	H5010	H	0.536207	-0.036397	0.106983
	H5011	H	0.520619	-0.035170	0.113463
	H5012	H	0.583548	-0.036148	0.106599
	H5013	H	0.599323	-0.037094	0.110743
	H5014	H	0.583586	0.533771	0.052502
	H5015	H	0.599185	0.532673	0.046290
	Al5016	Al	0.560968	-0.501407	0.198477
	Al5017	Al	0.560950	-0.251485	0.198484
	Al5018	Al	0.497449	-0.250000	0.142744
	Al5019	Al	0.497461	-0.500160	0.142668
	O5020	O	0.570361	-0.459375	0.218216
	O5021	O	0.560821	-0.376245	0.183343
	O5022	O	0.561018	-0.126252	0.213444
	O5023	O	0.614942	-0.461344	0.234722
	O5024	O	0.551595	-0.461717	0.217859
	O5025	O	0.507546	-0.459221	0.240480
	O5026	O	0.551771	-0.293691	0.218418
	O5027	O	0.551347	-0.211824	0.179326
	O5028	O	0.506817	-0.208119	0.162547
	O5029	O	0.570569	-0.291238	0.217529
	O5030	O	0.570070	-0.209575	0.178387
	O5031	O	0.614092	-0.211401	0.155271
	O5032	O	0.507741	-0.291057	0.241041
	O5033	O	0.551553	-0.043448	0.178594
	O5034	O	0.507021	-0.039763	0.162009
	O5035	O	0.614219	-0.043078	0.155707
	O5036	O	0.570274	-0.041266	0.178962
	O5037	O	0.615070	-0.293100	0.234266
	O5038	O	0.498251	-0.125864	0.245429
	O5039	O	0.623558	-0.376260	0.150717
	C5040	C	0.597326	-0.287181	0.226612
	C5041	C	0.601774	-0.377258	0.228283
	C5042	C	0.597107	-0.466733	0.227522
	C5043	C	0.588213	-0.466079	0.225285
	C5044	C	0.583749	-0.375997	0.223691
	C5045	C	0.588435	-0.286505	0.224381
	C5046	C	0.574218	-0.375599	0.219586
	C5047	C	0.611259	-0.377295	0.232677
	C5048	C	0.547980	-0.377595	0.220311
	C5049	C	0.538580	-0.377028	0.225732
	C5050	C	0.534184	-0.286661	0.228195
	C5051	C	0.525387	-0.286035	0.231658
	C5052	C	0.520716	-0.375500	0.232844
	C5053	C	0.525130	-0.465836	0.230596
	C5054	C	0.533932	-0.466563	0.227135
	C5055	C	0.511324	-0.375317	0.238403
	C5056	C	0.547722	-0.127357	0.177198
	C5057	C	0.538191	-0.126827	0.172988
	C5058	C	0.533757	-0.036437	0.171071
	C5059	C	0.524870	-0.035429	0.168773
	C5060	C	0.520185	-0.124911	0.168223
	C5061	C	0.524608	-0.215410	0.169987
	C5062	C	0.533495	-0.216318	0.172293
	C5063	C	0.510673	-0.124367	0.164050
	C5064	C	0.573864	-0.125683	0.176397
	C5065	C	0.583243	-0.126291	0.170791
	C5066	C	0.587653	-0.216311	0.168467
	C5067	C	0.596456	-0.216904	0.164895
	C5068	C	0.601090	-0.127114	0.163429
	C5069	C	0.596667	-0.037105	0.165738
	C5070	C	0.587872	-0.036630	0.169333
	C5071	C	0.610482	-0.127361	0.157785
	H5072	H	0.599752	-0.287105	0.163269
	H5073	H	0.584132	-0.285976	0.169561
	H5074	H	0.600832	-0.217252	0.227163
	H5075	H	0.585099	-0.216339	0.223134
	H5076	H	0.560587	-0.375618	0.167085
	H5077	H	0.561131	-0.126585	0.229478
	H5078	H	0.498063	-0.125792	0.229355
	H5079	H	0.623782	-0.376995	0.166834
	H5080	H	0.536806	-0.286568	0.173647
	H5081	H	0.521057	-0.285092	0.169577
	H5082	H	0.522091	-0.215971	0.233456
	H5083	H	0.537702	-0.216874	0.227397
	H5084	H	0.521569	0.034946	0.167378
	H5085	H	0.537305	0.033021	0.171420
	H5086	H	0.537262	-0.536649	0.225435
	H5087	H	0.521629	-0.535663	0.231659
	H5088	H	0.584696	-0.535807	0.224753
	H5089	H	0.600458	-0.536837	0.228750
	H5090	H	0.584581	0.033676	0.171042
	H5091	H	0.600188	0.032513	0.164781
	Al5092	Al	0.560964	-0.001135	0.198447
	Al5093	Al	0.560943	0.248873	0.198460
	Al5094	Al	0.497439	0.250033	0.142651
	Al5095	Al	0.497450	0.000023	0.142741
	O5096	O	0.570364	0.040435	0.218239
	O5097	O	0.560833	0.123879	0.183385
	O5098	O	0.561042	0.373903	0.213527
	O5099	O	0.614952	0.039384	0.234537
	O5100	O	0.551555	0.038373	0.217575
	O5101	O	0.507553	0.040788	0.240355
	O5102	O	0.551792	0.206741	0.218555
	O5103	O	0.551342	0.288434	0.179291
	O5104	O	0.506853	0.291972	0.162349
	O5105	O	0.570529	0.208638	0.217658
	O5106	O	0.570074	0.290745	0.178385
	O5107	O	0.614079	0.288712	0.155135
	O5108	O	0.507763	0.209064	0.241130
	O5109	O	0.551540	0.456718	0.178753
	O5110	O	0.507046	0.460292	0.161958
	O5111	O	0.614250	0.456914	0.155647
	O5112	O	0.570287	0.458972	0.178887
	O5113	O	0.615097	0.207560	0.234152
	O5114	O	0.498271	0.373999	0.245442
	O5115	O	0.623552	0.123366	0.150719
	C5116	C	0.597283	0.213784	0.226847
	C5117	C	0.601746	0.123754	0.228405
	C5118	C	0.597081	0.034158	0.227704
	C5119	C	0.588189	0.034422	0.225516
	C5120	C	0.583724	0.124317	0.223885
	C5121	C	0.588389	0.214005	0.224696
	C5122	C	0.574187	0.124599	0.219712
	C5123	C	0.611287	0.123494	0.232515
	C5124	C	0.547996	0.122858	0.220266
	C5125	C	0.538571	0.123222	0.225745
	C5126	C	0.534198	0.213431	0.228332
	C5127	C	0.525386	0.214123	0.231881
	C5128	C	0.520725	0.124397	0.232889
	C5129	C	0.525109	0.034334	0.230519
	C5130	C	0.533920	0.033638	0.226955
	C5131	C	0.511335	0.124768	0.238443
	C5132	C	0.547701	0.372685	0.177182
	C5133	C	0.538183	0.373287	0.172830
	C5134	C	0.533750	0.463592	0.171069
	C5135	C	0.524881	0.464448	0.168782
	C5136	C	0.520205	0.375031	0.168087
	C5137	C	0.524629	0.284654	0.169758
	C5138	C	0.533506	0.283805	0.172061
	C5139	C	0.510679	0.375995	0.163969
	C5140	C	0.573863	0.374618	0.176325
	C5141	C	0.583253	0.374050	0.170719
	C5142	C	0.587663	0.283819	0.168255
	C5143	C	0.596461	0.283422	0.164603
	C5144	C	0.601103	0.373012	0.163319
	C5145	C	0.596684	0.463278	0.165627
	C5146	C	0.587876	0.463693	0.169242
	C5147	C	0.610497	0.372869	0.157659
	H5148	H	0.599774	0.213333	0.162704
	H5149	H	0.584187	0.213813	0.169142
	H5150	H	0.600771	0.283806	0.227384
	H5151	H	0.585027	0.284111	0.223646
	H5152	H	0.560613	0.124334	0.167213
	H5153	H	0.561219	0.374033	0.229662
	H5154	H	0.497864	0.373735	0.229336
	H5155	H	0.623670	0.123263	0.166804
	H5156	H	0.536831	0.213708	0.173315
	H5157	H	0.521083	0.215149	0.169390
	H5158	H	0.522118	0.284596	0.233827
	H5159	H	0.537703	0.283177	0.227525
	H5160	H	0.521538	0.534779	0.167571
	H5161	H	0.537273	0.533451	0.171535
	H5162	H	0.537200	-0.036680	0.225125
	H5163	H	0.521605	-0.035501	0.231359
	H5164	H	0.584695	-0.035423	0.225069
	H5165	H	0.600436	-0.036107	0.228918
	H5166	H	0.584533	0.533777	0.170906
	H5167	H	0.600130	0.533171	0.164550
	Al5168	Al	0.561970	-0.501505	0.316002
	Al5169	Al	0.561968	-0.251243	0.316131
	Al5170	Al	0.498399	-0.250929	0.260410
	Al5171	Al	0.498424	-0.501077	0.260510
	O5172	O	0.571450	-0.459192	0.335575
	O5173	O	0.561840	-0.376202	0.301086
	O5174	O	0.562081	-0.126313	0.331206
	O5175	O	0.615970	-0.461077	0.352301
	O5176	O	0.552629	-0.461304	0.335412
	O5177	O	0.508677	-0.459644	0.358445
	O5178	O	0.552888	-0.293144	0.336381
	O5179	O	0.552361	-0.211812	0.297034
	O5180	O	0.507855	-0.209357	0.279894
	O5181	O	0.571604	-0.290912	0.335075
	O5182	O	0.571093	-0.209451	0.296079
	O5183	O	0.615165	-0.211199	0.273407
	O5184	O	0.508809	-0.291400	0.358885
	O5185	O	0.552557	-0.043648	0.296369
	O5186	O	0.507992	-0.040910	0.279628
	O5187	O	0.615275	-0.042720	0.273662
	O5188	O	0.571320	-0.041139	0.296565
	O5189	O	0.616142	-0.292913	0.351641
	O5190	O	0.499416	-0.125896	0.363294
	O5191	O	0.624692	-0.376004	0.268954
	C5192	C	0.598337	-0.286172	0.344291
	C5193	C	0.602798	-0.376501	0.346014
	C5194	C	0.598125	-0.466114	0.345280
	C5195	C	0.589256	-0.465373	0.343002
	C5196	C	0.584776	-0.375229	0.341293
	C5197	C	0.589456	-0.285586	0.342037
	C5198	C	0.575270	-0.375168	0.337096
	C5199	C	0.612319	-0.376912	0.350213
	C5200	C	0.549056	-0.377084	0.338138
	C5201	C	0.539664	-0.376565	0.343500
	C5202	C	0.535259	-0.286311	0.346052
	C5203	C	0.526457	-0.285903	0.349513
	C5204	C	0.521799	-0.375515	0.350653
	C5205	C	0.526203	-0.465738	0.348136
	C5206	C	0.535009	-0.466107	0.344682
	C5207	C	0.512431	-0.375651	0.356239
	C5208	C	0.548721	-0.127584	0.294828
	C5209	C	0.539191	-0.126841	0.290569
	C5210	C	0.534757	-0.036732	0.288777
	C5211	C	0.525866	-0.036297	0.286493
	C5212	C	0.521196	-0.125762	0.285811
	C5213	C	0.525628	-0.216016	0.287727
	C5214	C	0.534524	-0.216547	0.290018
	C5215	C	0.511677	-0.125293	0.281463
	C5216	C	0.574867	-0.125485	0.293928
	C5217	C	0.584260	-0.125914	0.288361
	C5218	C	0.588675	-0.216012	0.286139
	C5219	C	0.597493	-0.216118	0.282698
	C5220	C	0.602110	-0.126540	0.281194
	C5221	C	0.597687	-0.036303	0.283507
	C5222	C	0.588882	-0.036219	0.286966
	C5223	C	0.611530	-0.126891	0.275766
	H5224	H	0.600841	-0.285982	0.281205
	H5225	H	0.585214	-0.286166	0.287292
	H5226	H	0.601887	-0.216392	0.344887
	H5227	H	0.586090	-0.215439	0.340872
	H5228	H	0.561664	-0.376031	0.284999
	H5229	H	0.562355	-0.126105	0.347236
	H5230	H	0.499273	-0.126331	0.347211
	H5231	H	0.624885	-0.376246	0.285053
	H5232	H	0.537856	-0.286741	0.291522
	H5233	H	0.522095	-0.285490	0.287549
	H5234	H	0.523130	-0.215869	0.351439
	H5235	H	0.538766	-0.216583	0.345315
	H5236	H	0.522546	0.034066	0.285295
	H5237	H	0.538279	0.033075	0.289310
	H5238	H	0.538346	-0.536188	0.342894
	H5239	H	0.522704	-0.535621	0.348852
	H5240	H	0.585741	-0.535121	0.342628
	H5241	H	0.601481	-0.536385	0.346617
	H5242	H	0.585565	0.033757	0.288793
	H5243	H	0.601173	0.033547	0.282789
	Al5244	Al	0.561983	-0.001734	0.315994
	Al5245	Al	0.561983	0.248563	0.315887
	Al5246	Al	0.498403	0.248938	0.260603
	Al5247	Al	0.498416	-0.000773	0.260500
	O5248	O	0.571430	0.040793	0.335692
	O5249	O	0.561874	0.123445	0.300915
	O5250	O	0.562078	0.373858	0.330997
	O5251	O	0.615948	0.038561	0.352356
	O5252	O	0.552625	0.038804	0.335361
	O5253	O	0.508625	0.040621	0.358284
	O5254	O	0.552836	0.206949	0.336063
	O5255	O	0.552408	0.288443	0.296632
	O5256	O	0.507857	0.290992	0.280059
	O5257	O	0.571575	0.209203	0.334982
	O5258	O	0.571140	0.290740	0.295909
	O5259	O	0.615178	0.288429	0.273337
	O5260	O	0.508798	0.208984	0.358987
	O5261	O	0.552551	0.456859	0.296346
	O5262	O	0.507971	0.459298	0.279812
	O5263	O	0.615343	0.456945	0.273895
	O5264	O	0.571322	0.459140	0.296539
	O5265	O	0.616125	0.207013	0.351833
	O5266	O	0.499379	0.373746	0.363591
	O5267	O	0.624647	0.124155	0.268820
	C5268	C	0.598328	0.213719	0.344436
	C5269	C	0.602779	0.123630	0.346006
	C5270	C	0.598116	0.033979	0.345225
	C5271	C	0.589221	0.034225	0.342949
	C5272	C	0.584766	0.124420	0.341372
	C5273	C	0.589433	0.214107	0.342154
	C5274	C	0.575244	0.124976	0.337130
	C5275	C	0.612285	0.122899	0.350310
	C5276	C	0.549050	0.123145	0.338047
	C5277	C	0.539652	0.123473	0.343639
	C5278	C	0.535264	0.213655	0.346121
	C5279	C	0.526454	0.214219	0.349651
	C5280	C	0.521801	0.124539	0.350863
	C5281	C	0.526198	0.034410	0.348447
	C5282	C	0.535002	0.033732	0.344954
	C5283	C	0.512409	0.124836	0.356451
	C5284	C	0.548736	0.372680	0.294759
	C5285	C	0.539208	0.373394	0.290574
	C5286	C	0.534767	0.463699	0.288909
	C5287	C	0.525874	0.464353	0.286705
	C5288	C	0.521187	0.374785	0.286026
	C5289	C	0.525635	0.284650	0.287698
	C5290	C	0.534530	0.283920	0.289917
	C5291	C	0.511656	0.375176	0.281705
	C5292	C	0.574906	0.374797	0.293968
	C5293	C	0.584311	0.374381	0.288435
	C5294	C	0.588735	0.284226	0.286166
	C5295	C	0.597540	0.283813	0.282694
	C5296	C	0.602173	0.373581	0.281308
	C5297	C	0.597760	0.463709	0.283721
	C5298	C	0.588959	0.464084	0.287254
	C5299	C	0.611568	0.372853	0.275784
	H5300	H	0.600858	0.213485	0.281011
	H5301	H	0.585226	0.214437	0.287171
	H5302	H	0.601824	0.283530	0.344939
	H5303	H	0.586074	0.284521	0.340898
	H5304	H	0.561667	0.122880	0.284774
	H5305	H	0.562297	0.373521	0.347180
	H5306	H	0.499253	0.373608	0.347546
	H5307	H	0.624969	0.123933	0.284919
	H5308	H	0.537852	0.213708	0.291259
	H5309	H	0.522113	0.214777	0.287230
	H5310	H	0.523165	0.284536	0.351485
	H5311	H	0.538774	0.283495	0.345176
	H5312	H	0.522529	0.534666	0.285466
	H5313	H	0.538282	0.533467	0.289417
	H5314	H	0.538278	-0.036678	0.343069
	H5315	H	0.522663	-0.035619	0.349287
	H5316	H	0.585713	-0.035513	0.342374
	H5317	H	0.601485	-0.036328	0.346393
	H5318	H	0.585656	0.534213	0.289047
	H5319	H	0.601263	0.533472	0.282906
	Al5320	Al	0.563069	-0.501277	0.433610
	Al5321	Al	0.563079	-0.251470	0.433823
	Al5322	Al	0.499491	-0.251122	0.378349
	Al5323	Al	0.499479	-0.500965	0.378527
	O5324	O	0.572501	-0.460048	0.453413
	O5325	O	0.562959	-0.376317	0.418653
	O5326	O	0.563193	-0.126183	0.448830
	O5327	O	0.616998	-0.462128	0.470225
	O5328	O	0.553738	-0.461659	0.453344
	O5329	O	0.509751	-0.458996	0.476513
	O5330	O	0.553923	-0.293372	0.453781
	O5331	O	0.553485	-0.211353	0.414818
	O5332	O	0.508975	-0.209523	0.397933
	O5333	O	0.572639	-0.291721	0.453026
	O5334	O	0.572246	-0.209971	0.413801
	O5335	O	0.616228	-0.211107	0.391077
	O5336	O	0.509934	-0.290849	0.477212
	O5337	O	0.553659	-0.043030	0.414199
	O5338	O	0.509094	-0.041126	0.397477
	O5339	O	0.616392	-0.043007	0.391418
	O5340	O	0.572355	-0.041852	0.414181
	O5341	O	0.617129	-0.293881	0.469719
	O5342	O	0.500444	-0.125897	0.481377
	O5343	O	0.625641	-0.375889	0.386428
	C5344	C	0.599364	-0.286930	0.462489
	C5345	C	0.603804	-0.377235	0.464152
	C5346	C	0.599148	-0.466950	0.463213
	C5347	C	0.590257	-0.466688	0.460974
	C5348	C	0.585814	-0.376357	0.459406
	C5349	C	0.590479	-0.286582	0.460220
	C5350	C	0.576304	-0.375872	0.455105
	C5351	C	0.613325	-0.377873	0.468234
	C5352	C	0.550144	-0.377273	0.455859
	C5353	C	0.540769	-0.377068	0.461503
	C5354	C	0.536361	-0.286715	0.463941
	C5355	C	0.527548	-0.285723	0.467580
	C5356	C	0.522896	-0.375483	0.468942
	C5357	C	0.527307	-0.465817	0.466565
	C5358	C	0.536117	-0.466775	0.462918
	C5359	C	0.513532	-0.374930	0.474552
	C5360	C	0.549824	-0.127087	0.412763
	C5361	C	0.540300	-0.126505	0.408577
	C5362	C	0.535831	-0.036294	0.406690
	C5363	C	0.526947	-0.036029	0.404374
	C5364	C	0.522290	-0.125688	0.403715
	C5365	C	0.526757	-0.215946	0.405517
	C5366	C	0.535641	-0.216286	0.407844
	C5367	C	0.512782	-0.125274	0.399507
	C5368	C	0.575995	-0.125930	0.411796
	C5369	C	0.585379	-0.125857	0.406298
	C5370	C	0.589799	-0.215883	0.403930
	C5371	C	0.598611	-0.216331	0.400410
	C5372	C	0.603249	-0.126787	0.399193
	C5373	C	0.598830	-0.036692	0.401567
	C5374	C	0.590016	-0.036311	0.405062
	C5375	C	0.612632	-0.126967	0.393518
	H5376	H	0.601909	-0.286584	0.398641
	H5377	H	0.586293	-0.285842	0.404949
	H5378	H	0.602875	-0.217040	0.463027
	H5379	H	0.587130	-0.216151	0.459106
	H5380	H	0.562718	-0.376403	0.402529
	H5381	H	0.563297	-0.126227	0.464993
	H5382	H	0.500238	-0.126325	0.465415
	H5383	H	0.625709	-0.375164	0.402555
	H5384	H	0.539017	-0.286428	0.409111
	H5385	H	0.523253	-0.285847	0.405114
	H5386	H	0.524270	-0.215497	0.469375
	H5387	H	0.539875	-0.216918	0.462892
	H5388	H	0.523580	0.034299	0.403053
	H5389	H	0.539330	0.033643	0.407043
	H5390	H	0.539399	-0.537090	0.461084
	H5391	H	0.523791	-0.535703	0.467586
	H5392	H	0.586739	-0.536425	0.460408
	H5393	H	0.602506	-0.537086	0.464305
	H5394	H	0.586712	0.034005	0.406897
	H5395	H	0.602312	0.033202	0.400716
	Al5396	Al	0.563085	-0.001233	0.433779
	Al5397	Al	0.563076	0.248512	0.433744
	Al5398	Al	0.499498	0.248879	0.378585
	Al5399	Al	0.499474	-0.000984	0.378504
	O5400	O	0.572541	0.040295	0.453433
	O5401	O	0.562978	0.123566	0.418712
	O5402	O	0.563210	0.373710	0.448719
	O5403	O	0.617022	0.038585	0.470110
	O5404	O	0.553781	0.039177	0.453344
	O5405	O	0.509754	0.041371	0.476452
	O5406	O	0.553907	0.207198	0.453764
	O5407	O	0.553516	0.289028	0.414600
	O5408	O	0.508923	0.290948	0.398282
	O5409	O	0.572679	0.208538	0.452991
	O5410	O	0.572279	0.290015	0.413777
	O5411	O	0.616238	0.288911	0.390976
	O5412	O	0.509892	0.209484	0.476901
	O5413	O	0.553661	0.457170	0.413946
	O5414	O	0.509095	0.459210	0.397697
	O5415	O	0.616421	0.457113	0.391501
	O5416	O	0.572412	0.458247	0.414228
	O5417	O	0.617194	0.207043	0.469515
	O5418	O	0.500486	0.374303	0.481462
	O5419	O	0.625668	0.123944	0.386463
	C5420	C	0.599385	0.213360	0.462284
	C5421	C	0.603849	0.123229	0.463834
	C5422	C	0.599205	0.033582	0.463238
	C5423	C	0.590315	0.034191	0.461041
	C5424	C	0.585848	0.124258	0.459379
	C5425	C	0.590499	0.213858	0.460058
	C5426	C	0.576346	0.124505	0.455018
	C5427	C	0.613363	0.122842	0.468129
	C5428	C	0.550172	0.123223	0.455858
	C5429	C	0.540780	0.123522	0.461616
	C5430	C	0.536370	0.213701	0.464189
	C5431	C	0.527570	0.214249	0.467788
	C5432	C	0.522915	0.124771	0.468973
	C5433	C	0.527326	0.034470	0.466625
	C5434	C	0.536132	0.033903	0.463022
	C5435	C	0.513513	0.125446	0.474461
	C5436	C	0.549835	0.373021	0.412569
	C5437	C	0.540305	0.373333	0.408427
	C5438	C	0.535843	0.463408	0.406721
	C5439	C	0.526964	0.463919	0.404568
	C5440	C	0.522284	0.374428	0.403960
	C5441	C	0.526743	0.284209	0.405558
	C5442	C	0.535634	0.283719	0.407753
	C5443	C	0.512760	0.374967	0.399691
	C5444	C	0.576031	0.374081	0.411760
	C5445	C	0.585422	0.374173	0.406357
	C5446	C	0.589848	0.284182	0.404073
	C5447	C	0.598645	0.283693	0.400529
	C5448	C	0.603269	0.373386	0.399111
	C5449	C	0.598852	0.463533	0.401445
	C5450	C	0.590045	0.464040	0.404973
	C5451	C	0.612644	0.373212	0.393573
	H5452	H	0.601970	0.213688	0.398900
	H5453	H	0.586354	0.214245	0.405054
	H5454	H	0.602890	0.283277	0.462681
	H5455	H	0.587138	0.283858	0.458627
	H5456	H	0.562788	0.123205	0.402547
	H5457	H	0.563424	0.374125	0.464858
	H5458	H	0.500420	0.374580	0.465336
	H5459	H	0.625815	0.124333	0.402535
	H5460	H	0.538973	0.213662	0.409088
	H5461	H	0.523243	0.214333	0.405161
	H5462	H	0.524268	0.284600	0.469680
	H5463	H	0.539854	0.283790	0.463320
	H5464	H	0.523611	0.534003	0.403299
	H5465	H	0.539345	0.533163	0.407202
	H5466	H	0.539443	-0.036554	0.461253
	H5467	H	0.523850	-0.035418	0.467605
	H5468	H	0.586846	-0.035638	0.460425
	H5469	H	0.602567	-0.036617	0.464380
	H5470	H	0.586720	0.534330	0.406700
	H5471	H	0.602341	0.533120	0.400488
	Al5472	Al	0.564102	-0.501552	0.551817
	Al5473	Al	0.564115	-0.251392	0.551917
	Al5474	Al	0.500572	-0.250914	0.496439
	Al5475	Al	0.500592	-0.500797	0.496605
	O5476	O	0.573528	-0.460000	0.571583
	O5477	O	0.563995	-0.376341	0.536771
	O5478	O	0.564229	-0.126302	0.566936
	O5479	O	0.617992	-0.461832	0.588502
	O5480	O	0.554795	-0.461524	0.571369
	O5481	O	0.510763	-0.459611	0.594382
	O5482	O	0.554939	-0.293174	0.571911
	O5483	O	0.554556	-0.211269	0.532748
	O5484	O	0.509992	-0.208549	0.516155
	O5485	O	0.573683	-0.291960	0.571138
	O5486	O	0.573294	-0.209507	0.531964
	O5487	O	0.617272	-0.211697	0.508828
	O5488	O	0.510991	-0.291296	0.595105
	O5489	O	0.554690	-0.043179	0.532367
	O5490	O	0.510169	-0.040202	0.515468
	O5491	O	0.617434	-0.043225	0.509419
	O5492	O	0.573411	-0.041220	0.532425
	O5493	O	0.618179	-0.293670	0.587885
	O5494	O	0.501515	-0.126133	0.599410
	O5495	O	0.626722	-0.376382	0.504446
	C5496	C	0.600372	-0.287167	0.580530
	C5497	C	0.604836	-0.377184	0.582125
	C5498	C	0.600185	-0.466776	0.581416
	C5499	C	0.591312	-0.466285	0.579124
	C5500	C	0.586851	-0.376277	0.577489
	C5501	C	0.591503	-0.286652	0.578281
	C5502	C	0.577343	-0.375969	0.573191
	C5503	C	0.614351	-0.377570	0.586388
	C5504	C	0.551179	-0.377292	0.573953
	C5505	C	0.541815	-0.376997	0.579581
	C5506	C	0.537397	-0.286781	0.581904
	C5507	C	0.528588	-0.286336	0.585499
	C5508	C	0.523965	-0.376018	0.586955
	C5509	C	0.528385	-0.466122	0.584641
	C5510	C	0.537198	-0.466693	0.581045
	C5511	C	0.514573	-0.375740	0.592387
	C5512	C	0.550860	-0.127300	0.530857
	C5513	C	0.541346	-0.126969	0.526640
	C5514	C	0.536904	-0.036708	0.524848
	C5515	C	0.528012	-0.035830	0.522565
	C5516	C	0.523338	-0.125213	0.521935
	C5517	C	0.527766	-0.215577	0.523727
	C5518	C	0.536650	-0.216407	0.526027
	C5519	C	0.513832	-0.124624	0.517601
	C5520	C	0.577046	-0.125552	0.529865
	C5521	C	0.586420	-0.125975	0.524337
	C5522	C	0.590824	-0.216317	0.522005
	C5523	C	0.599613	-0.216994	0.518428
	C5524	C	0.604266	-0.127299	0.516967
	C5525	C	0.599869	-0.036981	0.519381
	C5526	C	0.591070	-0.036392	0.522949
	C5527	C	0.613663	-0.127478	0.511429
	H5528	H	0.602910	-0.287154	0.516759
	H5529	H	0.587323	-0.286125	0.523105
	H5530	H	0.603890	-0.217341	0.581015
	H5531	H	0.588152	-0.216423	0.577105
	H5532	H	0.563685	-0.376496	0.520614
	H5533	H	0.564380	-0.126082	0.583168
	H5534	H	0.501204	-0.125788	0.583400
	H5535	H	0.626753	-0.376649	0.520495
	H5536	H	0.539973	-0.286801	0.527381
	H5537	H	0.524251	-0.285521	0.523299
	H5538	H	0.525287	-0.216068	0.587247
	H5539	H	0.540886	-0.216896	0.581011
	H5540	H	0.524674	0.034646	0.521189
	H5541	H	0.540412	0.033084	0.525303
	H5542	H	0.540519	-0.536949	0.579425
	H5543	H	0.524908	-0.535977	0.585730
	H5544	H	0.587809	-0.535954	0.578579
	H5545	H	0.603546	-0.536907	0.582481
	H5546	H	0.587755	0.033766	0.524772
	H5547	H	0.603392	0.032807	0.518496
	Al5548	Al	0.564095	-0.001256	0.551960
	Al5549	Al	0.564100	0.248542	0.552024
	Al5550	Al	0.500560	0.249108	0.496428
	Al5551	Al	0.500558	-0.000687	0.496351
	O5552	O	0.573490	0.040745	0.571862
	O5553	O	0.563976	0.123402	0.536952
	O5554	O	0.564236	0.373835	0.567028
	O5555	O	0.618047	0.038561	0.588364
	O5556	O	0.554781	0.038696	0.571455
	O5557	O	0.510799	0.040531	0.594518
	O5558	O	0.554928	0.207122	0.571928
	O5559	O	0.554523	0.288586	0.532731
	O5560	O	0.509968	0.291159	0.516151
	O5561	O	0.573683	0.208875	0.571163
	O5562	O	0.573283	0.290001	0.532012
	O5563	O	0.617315	0.288740	0.509011
	O5564	O	0.510980	0.208819	0.594791
	O5565	O	0.554668	0.456954	0.532219
	O5566	O	0.510220	0.459563	0.515603
	O5567	O	0.617443	0.456891	0.509482
	O5568	O	0.573388	0.458374	0.532139
	O5569	O	0.618207	0.206823	0.587956
	O5570	O	0.501473	0.373920	0.599173
	O5571	O	0.626699	0.123402	0.504459
	C5572	C	0.600415	0.213266	0.580545
	C5573	C	0.604870	0.123161	0.582037
	C5574	C	0.600226	0.033529	0.581288
	C5575	C	0.591342	0.034160	0.579010
	C5576	C	0.586881	0.124241	0.577376
	C5577	C	0.591528	0.213838	0.578240
	C5578	C	0.577342	0.124613	0.573226
	C5579	C	0.614393	0.122834	0.586351
	C5580	C	0.551195	0.122902	0.573995
	C5581	C	0.541799	0.123196	0.579631
	C5582	C	0.537390	0.213362	0.581988
	C5583	C	0.528588	0.213656	0.585540
	C5584	C	0.523964	0.123901	0.586843
	C5585	C	0.528387	0.033687	0.584552
	C5586	C	0.537192	0.033259	0.581022
	C5587	C	0.514567	0.124618	0.592387
	C5588	C	0.550864	0.372867	0.530723
	C5589	C	0.541341	0.373104	0.526541
	C5590	C	0.536906	0.463539	0.524731
	C5591	C	0.528027	0.464198	0.522565
	C5592	C	0.523342	0.374481	0.522037
	C5593	C	0.527784	0.284186	0.523783
	C5594	C	0.536667	0.283348	0.526003
	C5595	C	0.513817	0.374979	0.517743
	C5596	C	0.577018	0.374221	0.529811
	C5597	C	0.586410	0.373750	0.524276
	C5598	C	0.590827	0.283560	0.522038
	C5599	C	0.599648	0.283482	0.518514
	C5600	C	0.604280	0.373068	0.517120
	C5601	C	0.599862	0.463045	0.519364
	C5602	C	0.591043	0.463397	0.522851
	C5603	C	0.613669	0.372906	0.511498
	H5604	H	0.602972	0.213197	0.516897
	H5605	H	0.587368	0.213700	0.523115
	H5606	H	0.603920	0.283048	0.581108
	H5607	H	0.588190	0.283975	0.577095
	H5608	H	0.563841	0.123104	0.520790
	H5609	H	0.564488	0.374204	0.583060
	H5610	H	0.501138	0.374205	0.583084
	H5611	H	0.626823	0.123452	0.520560
	H5612	H	0.540003	0.213107	0.527315
	H5613	H	0.524246	0.214509	0.523421
	H5614	H	0.525279	0.284056	0.587291
	H5615	H	0.540866	0.283150	0.581028
	H5616	H	0.524701	0.534514	0.521187
	H5617	H	0.540457	0.533235	0.525023
	H5618	H	0.540534	-0.037060	0.579349
	H5619	H	0.524899	-0.036349	0.585654
	H5620	H	0.587841	-0.035704	0.578482
	H5621	H	0.603566	-0.036731	0.582491
	H5622	H	0.587719	0.533729	0.524621
	H5623	H	0.603307	0.533144	0.518460
	Al5624	Al	0.565071	-0.502028	0.670051
	Al5625	Al	0.565095	-0.251800	0.670058
	Al5626	Al	0.501632	-0.251005	0.614494
	Al5627	Al	0.501620	-0.501234	0.614360
	O5628	O	0.574488	-0.460368	0.689859
	O5629	O	0.564994	-0.377074	0.655031
	O5630	O	0.565220	-0.126629	0.685085
	O5631	O	0.618994	-0.463640	0.706042
	O5632	O	0.555731	-0.461676	0.689554
	O5633	O	0.511748	-0.460217	0.712665
	O5634	O	0.555862	-0.293331	0.689905
	O5635	O	0.555614	-0.211593	0.650601
	O5636	O	0.511014	-0.209108	0.634201
	O5637	O	0.574637	-0.292110	0.689331
	O5638	O	0.574250	-0.209987	0.650075
	O5639	O	0.618266	-0.211064	0.627071
	O5640	O	0.511924	-0.291938	0.713190
	O5641	O	0.555722	-0.043237	0.650242
	O5642	O	0.511214	-0.040988	0.633706
	O5643	O	0.618395	-0.042589	0.627576
	O5644	O	0.574422	-0.041731	0.650609
	O5645	O	0.619220	-0.295325	0.705458
	O5646	O	0.502506	-0.127100	0.717672
	O5647	O	0.627694	-0.376381	0.622753
	C5648	C	0.601387	-0.288361	0.698565
	C5649	C	0.605831	-0.378402	0.700052
	C5650	C	0.601131	-0.467852	0.699582
	C5651	C	0.592248	-0.467096	0.697366
	C5652	C	0.587819	-0.376911	0.695553
	C5653	C	0.592505	-0.287561	0.696330
	C5654	C	0.578292	-0.376198	0.691348
	C5655	C	0.615373	-0.379119	0.704046
	C5656	C	0.552122	-0.377519	0.691880
	C5657	C	0.542730	-0.377196	0.697584
	C5658	C	0.538322	-0.287117	0.700049
	C5659	C	0.529532	-0.286590	0.703726
	C5660	C	0.524907	-0.376357	0.705020
	C5661	C	0.529307	-0.466346	0.702641
	C5662	C	0.538106	-0.466904	0.698954
	C5663	C	0.515517	-0.376217	0.710645
	C5664	C	0.551935	-0.127329	0.648654
	C5665	C	0.542421	-0.127148	0.644389
	C5666	C	0.537969	-0.036899	0.642632
	C5667	C	0.529075	-0.036449	0.640457
	C5668	C	0.524407	-0.125916	0.639959
	C5669	C	0.528866	-0.216246	0.641526
	C5670	C	0.537766	-0.216797	0.643699
	C5671	C	0.514869	-0.125276	0.635720
	C5672	C	0.578019	-0.125967	0.648088
	C5673	C	0.587420	-0.126164	0.642554
	C5674	C	0.591849	-0.216132	0.640089
	C5675	C	0.600655	-0.216420	0.636512
	C5676	C	0.605271	-0.126720	0.635269
	C5677	C	0.600839	-0.036719	0.637709
	C5678	C	0.592033	-0.036496	0.641285
	C5679	C	0.614662	-0.126896	0.629670
	H5680	H	0.603965	-0.286640	0.634726
	H5681	H	0.588377	-0.286178	0.641004
	H5682	H	0.604918	-0.218809	0.699021
	H5683	H	0.589190	-0.217334	0.695109
	H5684	H	0.564910	-0.377068	0.638873
	H5685	H	0.565380	-0.126895	0.701268
	H5686	H	0.502278	-0.127395	0.701565
	H5687	H	0.627864	-0.375871	0.638879
	H5688	H	0.541095	-0.287024	0.644997
	H5689	H	0.525356	-0.285917	0.641055
	H5690	H	0.526234	-0.216730	0.705691
	H5691	H	0.541822	-0.217467	0.699093
	H5692	H	0.525749	0.033859	0.639233
	H5693	H	0.541462	0.032793	0.642994
	H5694	H	0.541396	-0.536957	0.697252
	H5695	H	0.525822	-0.536144	0.703779
	H5696	H	0.588712	-0.536610	0.696969
	H5697	H	0.604451	-0.537870	0.700898
	H5698	H	0.588718	0.033480	0.643181
	H5699	H	0.604306	0.033234	0.636860
	Al5700	Al	0.565103	-0.001548	0.670110
	Al5701	Al	0.565081	0.248282	0.670098
	Al5702	Al	0.501594	0.248586	0.614188
	Al5703	Al	0.501611	-0.001065	0.614471
	O5704	O	0.574497	0.040133	0.689959
	O5705	O	0.564959	0.123188	0.655055
	O5706	O	0.565181	0.373145	0.685127
	O5707	O	0.619016	0.036259	0.706009
	O5708	O	0.555734	0.038224	0.689537
	O5709	O	0.511791	0.039419	0.712910
	O5710	O	0.555859	0.206544	0.689906
	O5711	O	0.555516	0.287640	0.650722
	O5712	O	0.510992	0.290787	0.633955
	O5713	O	0.574673	0.208456	0.689434
	O5714	O	0.574217	0.289829	0.650071
	O5715	O	0.618260	0.288260	0.627240
	O5716	O	0.511880	0.207773	0.713225
	O5717	O	0.555647	0.455849	0.650425
	O5718	O	0.511158	0.459090	0.633622
	O5719	O	0.618385	0.456692	0.627735
	O5720	O	0.574390	0.458326	0.650449
	O5721	O	0.619218	0.204653	0.705535
	O5722	O	0.502440	0.372977	0.717732
	O5723	O	0.627688	0.123449	0.622812
	C5724	C	0.601418	0.211847	0.698469
	C5725	C	0.605844	0.121621	0.700050
	C5726	C	0.601148	0.032495	0.699605
	C5727	C	0.592269	0.033385	0.697450
	C5728	C	0.587835	0.123612	0.695724
	C5729	C	0.592537	0.212678	0.696339
	C5730	C	0.578326	0.124093	0.691509
	C5731	C	0.615369	0.120750	0.704048
	C5732	C	0.552106	0.122342	0.692058
	C5733	C	0.542726	0.122461	0.697644
	C5734	C	0.538340	0.212515	0.699949
	C5735	C	0.529536	0.213188	0.703558
	C5736	C	0.524910	0.123753	0.705097
	C5737	C	0.529310	0.033696	0.702800
	C5738	C	0.538106	0.033020	0.699167
	C5739	C	0.515517	0.123749	0.710754
	C5740	C	0.551844	0.371799	0.648738
	C5741	C	0.542314	0.372427	0.644559
	C5742	C	0.537904	0.462776	0.642928
	C5743	C	0.529010	0.463739	0.640725
	C5744	C	0.524330	0.374203	0.639963
	C5745	C	0.528729	0.283876	0.641627
	C5746	C	0.537624	0.283049	0.643831
	C5747	C	0.514800	0.374803	0.635664
	C5748	C	0.577997	0.373850	0.648000
	C5749	C	0.587377	0.373289	0.642417
	C5750	C	0.591783	0.283100	0.640020
	C5751	C	0.600600	0.282793	0.636456
	C5752	C	0.605231	0.372468	0.635253
	C5753	C	0.600823	0.462533	0.637654
	C5754	C	0.592015	0.462881	0.641172
	C5755	C	0.614629	0.372485	0.629733
	H5756	H	0.603887	0.212786	0.634529
	H5757	H	0.588272	0.213432	0.640864
	H5758	H	0.604945	0.281082	0.698824
	H5759	H	0.589214	0.282935	0.695061
	H5760	H	0.564620	0.123316	0.638917
	H5761	H	0.565428	0.373382	0.701123
	H5762	H	0.502263	0.372447	0.701662
	H5763	H	0.627666	0.122847	0.638906
	H5764	H	0.540939	0.212597	0.645036
	H5765	H	0.525218	0.213997	0.641154
	H5766	H	0.526224	0.283295	0.705166
	H5767	H	0.541823	0.282264	0.698785
	H5768	H	0.525664	0.534022	0.639476
	H5769	H	0.541422	0.532629	0.643337
	H5770	H	0.541390	-0.037207	0.697354
	H5771	H	0.525820	-0.036110	0.703808
	H5772	H	0.588723	-0.035965	0.697079
	H5773	H	0.604483	-0.037884	0.700884
	H5774	H	0.588713	0.533178	0.642861
	H5775	H	0.604308	0.532237	0.636635
	Al5776	Al	0.565895	-0.503119	0.788953
	Al5777	Al	0.565882	-0.253746	0.789159
	Al5778	Al	0.502579	-0.251979	0.732722
	Al5779	Al	0.502584	-0.501969	0.732686
	O5780	O	0.574583	-0.461578	0.811030
	O5781	O	0.565981	-0.378348	0.774112
	O5782	O	0.565658	-0.128254	0.804156
	O5783	O	0.612661	-0.459897	0.877324
	O5784	O	0.556369	-0.463667	0.807819
	O5785	O	0.512735	-0.462173	0.832663
	O5786	O	0.556574	-0.295224	0.808550
	O5787	O	0.556488	-0.213739	0.769108
	O5788	O	0.511952	-0.209851	0.752591
	O5789	O	0.574784	-0.293573	0.810631
	O5790	O	0.575235	-0.211475	0.770291
	O5791	O	0.618901	-0.213564	0.744852
	O5792	O	0.512920	-0.293732	0.833271
	O5793	O	0.556690	-0.045298	0.768400
	O5794	O	0.512187	-0.041483	0.751923
	O5795	O	0.619093	-0.045213	0.745592
	O5796	O	0.575483	-0.043212	0.770871
	O5797	O	0.612808	-0.292142	0.876823
	O5798	O	0.503458	-0.129049	0.836553
	O5799	O	0.628172	-0.378128	0.740989
	C5800	C	0.597612	-0.288058	0.850075
	C5801	C	0.601390	-0.376881	0.857215
	C5802	C	0.597392	-0.466211	0.850929
	C5803	C	0.589799	-0.466536	0.837816
	C5804	C	0.586012	-0.377596	0.830760
	C5805	C	0.590032	-0.288430	0.836959
	C5806	C	0.577881	-0.377759	0.816467
	C5807	C	0.609526	-0.376120	0.871577
	C5808	C	0.552855	-0.379457	0.810793
	C5809	C	0.543550	-0.379177	0.817129
	C5810	C	0.539200	-0.289455	0.820289
	C5811	C	0.530462	-0.289204	0.824559
	C5812	C	0.525870	-0.378591	0.825702
	C5813	C	0.530236	-0.468338	0.822867
	C5814	C	0.538973	-0.468779	0.818604
	C5815	C	0.516505	-0.378167	0.830905
	C5816	C	0.552842	-0.129290	0.767038
	C5817	C	0.543319	-0.128801	0.762981
	C5818	C	0.538909	-0.038545	0.761165
	C5819	C	0.530029	-0.037724	0.758986
	C5820	C	0.525333	-0.126919	0.758434
	C5821	C	0.529747	-0.217235	0.760276
	C5822	C	0.538639	-0.218105	0.762496
	C5823	C	0.515810	-0.126142	0.754064
	C5824	C	0.579038	-0.127636	0.768528
	C5825	C	0.588404	-0.128291	0.763145
	C5826	C	0.592758	-0.218211	0.760475
	C5827	C	0.601503	-0.218806	0.756118
	C5828	C	0.606084	-0.129280	0.754384
	C5829	C	0.601744	-0.039392	0.757361
	C5830	C	0.593001	-0.038831	0.761721
	C5831	C	0.615370	-0.129540	0.747897
	H5832	H	0.604785	-0.288593	0.753934
	H5833	H	0.589273	-0.287797	0.761802
	H5834	H	0.600625	-0.218882	0.854874
	H5835	H	0.587191	-0.219651	0.831618
	H5836	H	0.566045	-0.377747	0.758004
	H5837	H	0.565219	-0.128129	0.820252
	H5838	H	0.503534	-0.129510	0.820437
	H5839	H	0.627769	-0.378404	0.756995
	H5840	H	0.541957	-0.288377	0.763844
	H5841	H	0.526203	-0.286446	0.759912
	H5842	H	0.527166	-0.219846	0.826961
	H5843	H	0.542672	-0.219933	0.819202
	H5844	H	0.526737	0.032720	0.757569
	H5845	H	0.542438	0.030984	0.761471
	H5846	H	0.542259	-0.538533	0.816176
	H5847	H	0.526766	-0.538034	0.823836
	H5848	H	0.586766	-0.535555	0.833093
	H5849	H	0.600242	-0.534990	0.856384
	H5850	H	0.589707	0.030841	0.763958
	H5851	H	0.605233	0.029866	0.756186
	Al5852	Al	0.565911	-0.003334	0.788973
	Al5853	Al	0.565899	0.246138	0.789069
	Al5854	Al	0.502580	0.248165	0.732802
	Al5855	Al	0.502619	-0.001989	0.732777
	O5856	O	0.574595	0.038778	0.811086
	O5857	O	0.565965	0.121683	0.774058
	O5858	O	0.565598	0.371457	0.804102
	O5859	O	0.612670	0.039755	0.877209
	O5860	O	0.556422	0.035880	0.807869
	O5861	O	0.512749	0.038107	0.832584
	O5862	O	0.556590	0.204291	0.808439
	O5863	O	0.556478	0.286605	0.769177
	O5864	O	0.511994	0.290107	0.752425
	O5865	O	0.574779	0.206950	0.810619
	O5866	O	0.575270	0.288699	0.770265
	O5867	O	0.618939	0.286993	0.745149
	O5868	O	0.512955	0.206641	0.833252
	O5869	O	0.556709	0.454978	0.768257
	O5870	O	0.512201	0.458448	0.751735
	O5871	O	0.619113	0.455371	0.745660
	O5872	O	0.575459	0.456925	0.770859
	O5873	O	0.612791	0.207926	0.876991
	O5874	O	0.503373	0.371084	0.836466
	O5875	O	0.628165	0.121990	0.741040
	C5876	C	0.597600	0.212364	0.850188
	C5877	C	0.601394	0.123737	0.857189
	C5878	C	0.597376	0.034728	0.850929
	C5879	C	0.589799	0.034510	0.837857
	C5880	C	0.586016	0.123083	0.830776
	C5881	C	0.590025	0.212035	0.837095
	C5882	C	0.577884	0.123078	0.816336
	C5883	C	0.609542	0.123841	0.871560
	C5884	C	0.552857	0.120096	0.810723
	C5885	C	0.543565	0.120604	0.817054
	C5886	C	0.539237	0.210583	0.820123
	C5887	C	0.530495	0.211061	0.824313
	C5888	C	0.525870	0.121605	0.825425
	C5889	C	0.530212	0.031561	0.822795
	C5890	C	0.538958	0.031103	0.818653
	C5891	C	0.516514	0.122288	0.830860
	C5892	C	0.552860	0.370994	0.766987
	C5893	C	0.543341	0.371736	0.763012
	C5894	C	0.538926	0.461890	0.761183
	C5895	C	0.530043	0.462683	0.758892
	C5896	C	0.525354	0.373374	0.758320
	C5897	C	0.529783	0.283282	0.760185
	C5898	C	0.538660	0.282402	0.762485
	C5899	C	0.515845	0.374118	0.753990
	C5900	C	0.579049	0.372572	0.768508
	C5901	C	0.588412	0.372389	0.763103
	C5902	C	0.592775	0.282497	0.760452
	C5903	C	0.601512	0.281913	0.756086
	C5904	C	0.606093	0.371391	0.754375
	C5905	C	0.601748	0.461227	0.757348
	C5906	C	0.593014	0.461730	0.761735
	C5907	C	0.615388	0.371148	0.747979
	H5908	H	0.604812	0.212124	0.753922
	H5909	H	0.589304	0.213250	0.761752
	H5910	H	0.600631	0.281318	0.855076
	H5911	H	0.587184	0.280633	0.831560
	H5912	H	0.565953	0.122015	0.758047
	H5913	H	0.565165	0.371833	0.820135
	H5914	H	0.503224	0.371366	0.820337
	H5915	H	0.627663	0.122442	0.757035
	H5916	H	0.542006	0.212450	0.763808
	H5917	H	0.526268	0.213604	0.759799
	H5918	H	0.527221	0.280677	0.826689
	H5919	H	0.542721	0.279751	0.819101
	H5920	H	0.526715	0.532671	0.757479
	H5921	H	0.542467	0.531302	0.761505
	H5922	H	0.542235	-0.038667	0.816382
	H5923	H	0.526721	-0.037745	0.823887
	H5924	H	0.586793	-0.034109	0.832979
	H5925	H	0.600224	-0.033995	0.856363
	H5926	H	0.589727	0.531395	0.763943
	H5927	H	0.605229	0.530769	0.756187
	Al5928	Al	0.559025	-0.500433	0.960978
	Al5929	Al	0.559051	-0.249920	0.961250
	Al5930	Al	0.503399	-0.253369	0.851471
	Al5931	Al	0.503383	-0.504161	0.851560
	O5932	O	0.568283	-0.458728	0.981439
	O5933	O	0.559297	-0.375013	0.946070
	O5934	O	0.558954	-0.124956	0.976092
	O5935	O	0.612821	-0.461829	0.997899
	O5936	O	0.549540	-0.460092	0.979321
	O5937	O	0.505864	-0.457434	1.003713
	O5938	O	0.549715	-0.291774	0.980110
	O5939	O	0.550201	-0.210505	0.939566
	O5940	O	0.512143	-0.212037	0.873407
	O5941	O	0.568429	-0.290230	0.981231
	O5942	O	0.568341	-0.208597	0.941807
	O5943	O	0.612033	-0.210199	0.917138
	O5944	O	0.506057	-0.289087	1.004402
	O5945	O	0.550326	-0.042275	0.939167
	O5946	O	0.512309	-0.043742	0.872812
	O5947	O	0.612169	-0.041689	0.917716
	O5948	O	0.568541	-0.040276	0.942177
	O5949	O	0.612938	-0.293561	0.997558
	O5950	O	0.496791	-0.124688	1.008313
	O5951	O	0.621465	-0.375349	0.913915
	C5952	C	0.595192	-0.286853	0.989889
	C5953	C	0.599622	-0.377243	0.991652
	C5954	C	0.594932	-0.466478	0.990936
	C5955	C	0.586063	-0.465584	0.988725
	C5956	C	0.581622	-0.375285	0.987138
	C5957	C	0.586314	-0.285925	0.987672
	C5958	C	0.572096	-0.374677	0.983082
	C5959	C	0.609145	-0.377633	0.995943
	C5960	C	0.545953	-0.375905	0.981682
	C5961	C	0.536581	-0.375428	0.986891
	C5962	C	0.532255	-0.285068	0.989441
	C5963	C	0.523506	-0.284125	0.993599
	C5964	C	0.518890	-0.373567	0.995198
	C5965	C	0.523221	-0.463637	0.992459
	C5966	C	0.531970	-0.464683	0.988301
	C5967	C	0.509602	-0.373213	1.001520
	C5968	C	0.547052	-0.126723	0.933857
	C5969	C	0.538911	-0.126959	0.919463
	C5970	C	0.535154	-0.038280	0.912359
	C5971	C	0.527570	-0.038509	0.899193
	C5972	C	0.523554	-0.127552	0.893066
	C5973	C	0.527304	-0.216443	0.900188
	C5974	C	0.534900	-0.216218	0.913301
	C5975	C	0.515422	-0.127899	0.878637
	C5976	C	0.572065	-0.124584	0.939439
	C5977	C	0.581354	-0.125276	0.932975
	C5978	C	0.585708	-0.215028	0.930166
	C5979	C	0.594454	-0.215327	0.925930
	C5980	C	0.599039	-0.125870	0.924545
	C5981	C	0.594681	-0.036011	0.927052
	C5982	C	0.585946	-0.035700	0.931282
	C5983	C	0.608397	-0.126071	0.919372
	H5984	H	0.597768	-0.284984	0.923841
	H5985	H	0.582238	-0.284780	0.931444
	H5986	H	0.598751	-0.217225	0.990205
	H5987	H	0.582978	-0.215838	0.986380
	H5988	H	0.559789	-0.374710	0.930073
	H5989	H	0.558943	-0.123824	0.992194
	H5990	H	0.497233	-0.125225	0.992303
	H5991	H	0.621478	-0.375589	0.929978
	H5992	H	0.537693	-0.285420	0.918816
	H5993	H	0.524287	-0.285589	0.895412
	H5994	H	0.520245	-0.214106	0.995687
	H5995	H	0.535755	-0.215745	0.988226
	H5996	H	0.524773	0.030315	0.893691
	H5997	H	0.538155	0.031105	0.917137
	H5998	H	0.535253	-0.534610	0.986244
	H5999	H	0.519736	-0.532986	0.993634
	H6000	H	0.582492	-0.535234	0.988272
	H6001	H	0.598256	-0.536856	0.992135
	H6002	H	0.582644	0.034129	0.933438
	H6003	H	0.598131	0.033607	0.925828
	Al6004	Al	0.559032	-0.000654	0.961045
	Al6005	Al	0.559062	0.250215	0.961075
	Al6006	Al	0.503396	0.246553	0.851426
	Al6007	Al	0.503381	-0.004270	0.851394
	O6008	O	0.568243	0.041574	0.981715
	O6009	O	0.559259	0.124758	0.945968
	O6010	O	0.559013	0.375102	0.976006
	O6011	O	0.612785	0.038663	0.997984
	O6012	O	0.549495	0.039938	0.979261
	O6013	O	0.505856	0.042416	1.003622
	O6014	O	0.549686	0.208048	0.979818
	O6015	O	0.550215	0.290220	0.939524
	O6016	O	0.512048	0.288067	0.873562
	O6017	O	0.568424	0.209964	0.981177
	O6018	O	0.568339	0.291187	0.941544
	O6019	O	0.611998	0.289625	0.917273
	O6020	O	0.506091	0.210600	1.004481
	O6021	O	0.550284	0.458115	0.939114
	O6022	O	0.512271	0.456072	0.872895
	O6023	O	0.612147	0.458148	0.917772
	O6024	O	0.568465	0.459634	0.941941
	O6025	O	0.612956	0.207014	0.997578
	O6026	O	0.496844	0.375296	1.008319
	O6027	O	0.621480	0.125015	0.913780
	C6028	C	0.595171	0.213543	0.989596
	C6029	C	0.599615	0.123399	0.991616
	C6030	C	0.594941	0.033967	0.991173
	C6031	C	0.586050	0.034882	0.989059
	C6032	C	0.581606	0.125111	0.987239
	C6033	C	0.586293	0.214501	0.987464
	C6034	C	0.572077	0.125781	0.983197
	C6035	C	0.609123	0.122882	0.995903
	C6036	C	0.545895	0.124223	0.981620
	C6037	C	0.536566	0.124963	0.986893
	C6038	C	0.532221	0.214910	0.989570
	C6039	C	0.523485	0.215661	0.993742
	C6040	C	0.518892	0.126103	0.995317
	C6041	C	0.523216	0.036369	0.992350
	C6042	C	0.531958	0.035843	0.988159
	C6043	C	0.509600	0.126581	1.001539
	C6044	C	0.547023	0.373938	0.933827
	C6045	C	0.538904	0.373009	0.919484
	C6046	C	0.535152	0.461541	0.912241
	C6047	C	0.527581	0.461181	0.899123
	C6048	C	0.523542	0.372104	0.893055
	C6049	C	0.527300	0.283551	0.900247
	C6050	C	0.534882	0.284064	0.913332
	C6051	C	0.515394	0.372115	0.878733
	C6052	C	0.572022	0.375330	0.939158
	C6053	C	0.581317	0.374870	0.932823
	C6054	C	0.585669	0.284753	0.929951
	C6055	C	0.594421	0.284374	0.925866
	C6056	C	0.599018	0.374074	0.924581
	C6057	C	0.594653	0.464044	0.927125
	C6058	C	0.585897	0.464578	0.931214
	C6059	C	0.608376	0.373931	0.919445
	H6060	H	0.597715	0.214897	0.923619
	H6061	H	0.582188	0.215213	0.931226
	H6062	H	0.598701	0.283196	0.989775
	H6063	H	0.582989	0.284485	0.986054
	H6064	H	0.559750	0.124838	0.929978
	H6065	H	0.559054	0.375467	0.992005
	H6066	H	0.497209	0.375740	0.992344
	H6067	H	0.621706	0.124765	0.929864
	H6068	H	0.537688	0.215316	0.918993
	H6069	H	0.524271	0.214868	0.895633
	H6070	H	0.520199	0.285513	0.995988
	H6071	H	0.535729	0.284312	0.988496
	H6072	H	0.524773	0.529994	0.893520
	H6073	H	0.538180	0.530844	0.916948
	H6074	H	0.535235	-0.033915	0.985943
	H6075	H	0.519728	-0.032807	0.993481
	H6076	H	0.582521	-0.034800	0.988882
	H6077	H	0.598274	-0.036148	0.992638
	H6078	H	0.582601	0.534104	0.933395
	H6079	H	0.598124	0.533295	0.925901
	Al6080	Al	0.685924	-0.501501	0.073145
	Al6081	Al	0.685908	-0.251356	0.073167
	Al6082	Al	0.622389	-0.251767	0.017203
	Al6083	Al	0.622381	-0.501788	0.017268
	O6084	O	0.695355	-0.459520	0.092705
	O6085	O	0.685741	-0.376366	0.058180
	O6086	O	0.686041	-0.126402	0.088216
	O6087	O	0.739864	-0.461877	0.109571
	O6088	O	0.676582	-0.461281	0.092755
	O6089	O	0.632593	-0.459433	0.115754
	O6090	O	0.676747	-0.293007	0.093181
	O6091	O	0.676294	-0.211596	0.053932
	O6092	O	0.631822	-0.210198	0.036840
	O6093	O	0.695498	-0.291254	0.092349
	O6094	O	0.695068	-0.209726	0.053074
	O6095	O	0.739078	-0.211503	0.030225
	O6096	O	0.632767	-0.291383	0.116156
	O6097	O	0.676465	-0.043485	0.053624
	O6098	O	0.631949	-0.041730	0.036414
	O6099	O	0.739265	-0.043198	0.030829
	O6100	O	0.695241	-0.041657	0.053607
	O6101	O	0.740029	-0.293332	0.108946
	O6102	O	0.623298	-0.126634	0.120654
	O6103	O	0.748491	-0.377051	0.025739
	C6104	C	0.722247	-0.286859	0.101586
	C6105	C	0.726695	-0.377031	0.103249
	C6106	C	0.722025	-0.466686	0.102439
	C6107	C	0.713147	-0.466041	0.100113
	C6108	C	0.708687	-0.375731	0.098495
	C6109	C	0.713363	-0.286145	0.099264
	C6110	C	0.699169	-0.375432	0.094258
	C6111	C	0.736208	-0.377499	0.107452
	C6112	C	0.672980	-0.377171	0.095139
	C6113	C	0.663583	-0.376913	0.100710
	C6114	C	0.659175	-0.286940	0.102930
	C6115	C	0.650373	-0.286406	0.106504
	C6116	C	0.645751	-0.375946	0.108048
	C6117	C	0.650163	-0.465959	0.105783
	C6118	C	0.658967	-0.466531	0.102196
	C6119	C	0.636363	-0.375425	0.113704
	C6120	C	0.672632	-0.127319	0.051937
	C6121	C	0.663116	-0.126734	0.047691
	C6122	C	0.658655	-0.036788	0.046048
	C6123	C	0.649769	-0.036406	0.043732
	C6124	C	0.645127	-0.126108	0.042964
	C6125	C	0.649591	-0.216031	0.044628
	C6126	C	0.658466	-0.216409	0.046912
	C6127	C	0.635624	-0.125888	0.038489
	C6128	C	0.698815	-0.125838	0.050972
	C6129	C	0.708227	-0.125980	0.045365
	C6130	C	0.712639	-0.216165	0.042947
	C6131	C	0.721447	-0.216747	0.039487
	C6132	C	0.726083	-0.127153	0.038204
	C6133	C	0.721668	-0.037102	0.040532
	C6134	C	0.712867	-0.036486	0.043993
	C6135	C	0.735495	-0.127245	0.032797
	H6136	H	0.724748	-0.286908	0.037758
	H6137	H	0.709137	-0.285707	0.043901
	H6138	H	0.725779	-0.216975	0.102147
	H6139	H	0.710023	-0.215642	0.097997
	H6140	H	0.685354	-0.376983	0.042098
	H6141	H	0.686206	-0.126723	0.104328
	H6142	H	0.622950	-0.126839	0.104534
	H6143	H	0.748729	-0.377227	0.041825
	H6144	H	0.661807	-0.286765	0.048153
	H6145	H	0.646067	-0.285854	0.044113
	H6146	H	0.647084	-0.216087	0.108221
	H6147	H	0.662661	-0.217186	0.101924
	H6148	H	0.646426	0.033892	0.042576
	H6149	H	0.662203	0.032978	0.046585
	H6150	H	0.662267	-0.536825	0.100539
	H6151	H	0.646667	-0.535825	0.106913
	H6152	H	0.709620	-0.535577	0.099590
	H6153	H	0.725369	-0.536923	0.103626
	H6154	H	0.709567	0.033807	0.045782
	H6155	H	0.725180	0.032910	0.039615
	Al6156	Al	0.685904	-0.001825	0.073231
	Al6157	Al	0.685881	0.248429	0.073130
	Al6158	Al	0.622384	0.248534	0.017224
	Al6159	Al	0.622392	-0.001730	0.017309
	O6160	O	0.695323	0.039955	0.092892
	O6161	O	0.685759	0.122984	0.058128
	O6162	O	0.686103	0.373171	0.088219
	O6163	O	0.739880	0.037717	0.109414
	O6164	O	0.676558	0.038151	0.092769
	O6165	O	0.632550	0.039664	0.115524
	O6166	O	0.676686	0.206583	0.092965
	O6167	O	0.676303	0.288196	0.054072
	O6168	O	0.631790	0.290093	0.037001
	O6169	O	0.695480	0.208245	0.092303
	O6170	O	0.695042	0.289673	0.053069
	O6171	O	0.739062	0.288405	0.030042
	O6172	O	0.632698	0.207844	0.116018
	O6173	O	0.676490	0.456539	0.053512
	O6174	O	0.632007	0.458528	0.036349
	O6175	O	0.739200	0.456579	0.030543
	O6176	O	0.695192	0.458047	0.053539
	O6177	O	0.740028	0.206079	0.108935
	O6178	O	0.623322	0.373624	0.120580
	O6179	O	0.748556	0.123291	0.025717
	C6180	C	0.722235	0.212460	0.101414
	C6181	C	0.726680	0.122177	0.103154
	C6182	C	0.722015	0.032779	0.102576
	C6183	C	0.713110	0.033482	0.100364
	C6184	C	0.708675	0.123673	0.098589
	C6185	C	0.713336	0.213091	0.099166
	C6186	C	0.699158	0.124042	0.094306
	C6187	C	0.736199	0.122068	0.107379
	C6188	C	0.672939	0.122414	0.095181
	C6189	C	0.663544	0.122708	0.100726
	C6190	C	0.659129	0.212741	0.103017
	C6191	C	0.650317	0.213155	0.106506
	C6192	C	0.645713	0.123372	0.108006
	C6193	C	0.650113	0.033284	0.105685
	C6194	C	0.658928	0.033000	0.102188
	C6195	C	0.636309	0.123722	0.113429
	C6196	C	0.672655	0.372548	0.051982
	C6197	C	0.663156	0.372788	0.047609
	C6198	C	0.658689	0.463094	0.045919
	C6199	C	0.649799	0.463610	0.043607
	C6200	C	0.645141	0.373952	0.042839
	C6201	C	0.649593	0.283734	0.044616
	C6202	C	0.658486	0.283185	0.046961
	C6203	C	0.635639	0.374126	0.038470
	C6204	C	0.698801	0.373848	0.050996
	C6205	C	0.708201	0.373371	0.045462
	C6206	C	0.712607	0.283283	0.043225
	C6207	C	0.721415	0.282855	0.039686
	C6208	C	0.726052	0.372467	0.038306
	C6209	C	0.721653	0.462407	0.040677
	C6210	C	0.712841	0.462824	0.044215
	C6211	C	0.735435	0.372309	0.032593
	H6212	H	0.724719	0.212752	0.037822
	H6213	H	0.709142	0.213256	0.044259
	H6214	H	0.725716	0.282136	0.101936
	H6215	H	0.709994	0.283326	0.097966
	H6216	H	0.685534	0.122570	0.042022
	H6217	H	0.686332	0.373795	0.104255
	H6218	H	0.623060	0.373017	0.104492
	H6219	H	0.748956	0.123184	0.041821
	H6220	H	0.661841	0.213119	0.048428
	H6221	H	0.646104	0.213866	0.044220
	H6222	H	0.646989	0.283250	0.108168
	H6223	H	0.662620	0.282687	0.102141
	H6224	H	0.646434	0.533562	0.042407
	H6225	H	0.662167	0.533127	0.046468
	H6226	H	0.662262	-0.037149	0.100639
	H6227	H	0.646627	-0.036654	0.106615
	H6228	H	0.709588	-0.036275	0.100211
	H6229	H	0.725330	-0.037246	0.103983
	H6230	H	0.709531	0.533110	0.045988
	H6231	H	0.725125	0.532353	0.039608
	Al6232	Al	0.686973	-0.501433	0.191134
	Al6233	Al	0.686983	-0.251509	0.191136
	Al6234	Al	0.623419	-0.251526	0.135748
	Al6235	Al	0.623421	-0.501617	0.135688
	O6236	O	0.696386	-0.459064	0.210877
	O6237	O	0.686896	-0.376505	0.176046
	O6238	O	0.687095	-0.126484	0.206226
	O6239	O	0.740950	-0.461423	0.227456
	O6240	O	0.677609	-0.461826	0.210611
	O6241	O	0.633645	-0.459092	0.233699
	O6242	O	0.677819	-0.293720	0.211122
	O6243	O	0.677411	-0.211848	0.171979
	O6244	O	0.632901	-0.209859	0.155255
	O6245	O	0.696562	-0.291136	0.210381
	O6246	O	0.696123	-0.209618	0.171144
	O6247	O	0.740125	-0.212165	0.148122
	O6248	O	0.633840	-0.290918	0.234436
	O6249	O	0.677605	-0.043446	0.171391
	O6250	O	0.633063	-0.041700	0.154731
	O6251	O	0.740321	-0.043658	0.148652
	O6252	O	0.696314	-0.041289	0.171802
	O6253	O	0.741113	-0.293148	0.226956
	O6254	O	0.624385	-0.126225	0.238827
	O6255	O	0.749575	-0.376557	0.143673
	C6256	C	0.723320	-0.286635	0.219392
	C6257	C	0.727766	-0.376805	0.221223
	C6258	C	0.723085	-0.466346	0.220678
	C6259	C	0.714192	-0.465988	0.218447
	C6260	C	0.709753	-0.375743	0.216655
	C6261	C	0.714428	-0.286222	0.217175
	C6262	C	0.700224	-0.375320	0.212419
	C6263	C	0.737292	-0.377102	0.225412
	C6264	C	0.674039	-0.377522	0.213166
	C6265	C	0.664640	-0.377117	0.218721
	C6266	C	0.660244	-0.286928	0.221062
	C6267	C	0.651458	-0.286383	0.224667
	C6268	C	0.646802	-0.375734	0.226117
	C6269	C	0.651196	-0.465940	0.223765
	C6270	C	0.659985	-0.466548	0.220147
	C6271	C	0.637414	-0.375172	0.231701
	C6272	C	0.673791	-0.127543	0.169979
	C6273	C	0.664262	-0.127458	0.165712
	C6274	C	0.659818	-0.037235	0.163897
	C6275	C	0.650935	-0.036599	0.161636
	C6276	C	0.646255	-0.126223	0.161001
	C6277	C	0.650697	-0.216451	0.162788
	C6278	C	0.659582	-0.217119	0.165056
	C6279	C	0.636715	-0.125976	0.156785
	C6280	C	0.699899	-0.125581	0.169159
	C6281	C	0.709296	-0.125939	0.163465
	C6282	C	0.713693	-0.216263	0.161077
	C6283	C	0.722498	-0.216852	0.157573
	C6284	C	0.727153	-0.127282	0.156244
	C6285	C	0.722758	-0.037087	0.158566
	C6286	C	0.713946	-0.036433	0.162082
	C6287	C	0.736549	-0.127687	0.150703
	H6288	H	0.725817	-0.286980	0.155925
	H6289	H	0.710223	-0.286004	0.162093
	H6290	H	0.726822	-0.216668	0.219627
	H6291	H	0.711101	-0.216196	0.215742
	H6292	H	0.686765	-0.376166	0.160003
	H6293	H	0.687258	-0.126176	0.222412
	H6294	H	0.624105	-0.126194	0.222826
	H6295	H	0.749682	-0.376371	0.159808
	H6296	H	0.662925	-0.287366	0.166209
	H6297	H	0.647166	-0.286276	0.162235
	H6298	H	0.648161	-0.216229	0.226376
	H6299	H	0.663738	-0.217368	0.219997
	H6300	H	0.647593	0.033516	0.160172
	H6301	H	0.663352	0.032342	0.164110
	H6302	H	0.663310	-0.536705	0.218332
	H6303	H	0.647710	-0.535392	0.224731
	H6304	H	0.710700	-0.535802	0.218103
	H6305	H	0.726441	-0.536792	0.221964
	H6306	H	0.710626	0.033940	0.163872
	H6307	H	0.726246	0.032654	0.157717
	Al6308	Al	0.687011	-0.001342	0.191262
	Al6309	Al	0.686982	0.248687	0.191265
	Al6310	Al	0.623426	0.248461	0.135647
	Al6311	Al	0.623423	-0.001681	0.135651
	O6312	O	0.696412	0.040589	0.211085
	O6313	O	0.686909	0.123707	0.176223
	O6314	O	0.687106	0.373904	0.206251
	O6315	O	0.740957	0.038049	0.227513
	O6316	O	0.677622	0.038528	0.210487
	O6317	O	0.633666	0.040531	0.233838
	O6318	O	0.677834	0.206843	0.211272
	O6319	O	0.677366	0.287974	0.172189
	O6320	O	0.632862	0.290074	0.155371
	O6321	O	0.696611	0.208720	0.210286
	O6322	O	0.696157	0.290315	0.171125
	O6323	O	0.740138	0.287974	0.148105
	O6324	O	0.633842	0.208734	0.234326
	O6325	O	0.677584	0.456254	0.171403
	O6326	O	0.633032	0.458529	0.154727
	O6327	O	0.740335	0.456180	0.148610
	O6328	O	0.696342	0.458520	0.171730
	O6329	O	0.741154	0.206263	0.226831
	O6330	O	0.624388	0.374018	0.238809
	O6331	O	0.749546	0.122972	0.143630
	C6332	C	0.723352	0.212996	0.219305
	C6333	C	0.727800	0.122819	0.221102
	C6334	C	0.723109	0.033300	0.220577
	C6335	C	0.714234	0.033912	0.218301
	C6336	C	0.709784	0.124136	0.216532
	C6337	C	0.714477	0.213638	0.217052
	C6338	C	0.700247	0.124453	0.212422
	C6339	C	0.737326	0.122361	0.225393
	C6340	C	0.674036	0.122727	0.213207
	C6341	C	0.664667	0.123139	0.218841
	C6342	C	0.660273	0.213243	0.221178
	C6343	C	0.651460	0.213713	0.224780
	C6344	C	0.646836	0.124173	0.226219
	C6345	C	0.651229	0.034135	0.223854
	C6346	C	0.660038	0.033629	0.220225
	C6347	C	0.637444	0.124510	0.231784
	C6348	C	0.673722	0.372446	0.170005
	C6349	C	0.664204	0.372770	0.165690
	C6350	C	0.659767	0.462970	0.163892
	C6351	C	0.650875	0.463519	0.161639
	C6352	C	0.646201	0.373858	0.161068
	C6353	C	0.650641	0.283672	0.162711
	C6354	C	0.659529	0.283151	0.164996
	C6355	C	0.636687	0.374233	0.156750
	C6356	C	0.699942	0.374408	0.169169
	C6357	C	0.709314	0.373746	0.163635
	C6358	C	0.713722	0.283702	0.161200
	C6359	C	0.722524	0.283144	0.157567
	C6360	C	0.727179	0.372743	0.156312
	C6361	C	0.722784	0.462763	0.158754
	C6362	C	0.713974	0.463334	0.162361
	C6363	C	0.736536	0.372252	0.150633
	H6364	H	0.725810	0.212856	0.155589
	H6365	H	0.710219	0.213791	0.162103
	H6366	H	0.726885	0.282551	0.219640
	H6367	H	0.711148	0.283853	0.215668
	H6368	H	0.686735	0.122817	0.160229
	H6369	H	0.687154	0.374824	0.222311
	H6370	H	0.624197	0.374264	0.222705
	H6371	H	0.749664	0.122960	0.159684
	H6372	H	0.662868	0.212961	0.166448
	H6373	H	0.647140	0.213753	0.162266
	H6374	H	0.648172	0.284218	0.226537
	H6375	H	0.663764	0.283060	0.220150
	H6376	H	0.647529	0.533671	0.160355
	H6377	H	0.663282	0.532857	0.164466
	H6378	H	0.663312	-0.036783	0.218509
	H6379	H	0.647758	-0.035662	0.224868
	H6380	H	0.710682	-0.035808	0.217868
	H6381	H	0.726445	-0.037015	0.221895
	H6382	H	0.710682	0.533695	0.164140
	H6383	H	0.726289	0.532563	0.157744
	Al6384	Al	0.688062	-0.500868	0.309276
	Al6385	Al	0.688060	-0.251049	0.309174
	Al6386	Al	0.624515	-0.251171	0.253903
	Al6387	Al	0.624526	-0.500975	0.253917
	O6388	O	0.697457	-0.458725	0.329068
	O6389	O	0.687974	-0.376013	0.294128
	O6390	O	0.688161	-0.125600	0.324244
	O6391	O	0.741984	-0.461662	0.345548
	O6392	O	0.678759	-0.460625	0.328905
	O6393	O	0.634727	-0.459059	0.351216
	O6394	O	0.678943	-0.292442	0.329359
	O6395	O	0.678487	-0.211051	0.289984
	O6396	O	0.633932	-0.209186	0.273523
	O6397	O	0.697694	-0.290608	0.328070
	O6398	O	0.697239	-0.208779	0.289254
	O6399	O	0.741234	-0.211694	0.266188
	O6400	O	0.634904	-0.290963	0.351963
	O6401	O	0.678652	-0.042561	0.289450
	O6402	O	0.634062	-0.040881	0.273233
	O6403	O	0.741392	-0.043399	0.266649
	O6404	O	0.697407	-0.040598	0.289763
	O6405	O	0.742178	-0.293665	0.345186
	O6406	O	0.625488	-0.126112	0.356382
	O6407	O	0.750643	-0.376374	0.261665
	C6408	C	0.724365	-0.286395	0.337516
	C6409	C	0.728808	-0.376797	0.339384
	C6410	C	0.724129	-0.466269	0.338653
	C6411	C	0.715253	-0.465646	0.336414
	C6412	C	0.710813	-0.375383	0.334704
	C6413	C	0.715486	-0.285705	0.335280
	C6414	C	0.701321	-0.374952	0.330444
	C6415	C	0.738341	-0.377426	0.343606
	C6416	C	0.675157	-0.376372	0.331376
	C6417	C	0.665773	-0.376064	0.336899
	C6418	C	0.661349	-0.285998	0.339164
	C6419	C	0.652544	-0.285825	0.342609
	C6420	C	0.647912	-0.375442	0.343931
	C6421	C	0.652337	-0.465614	0.341627
	C6422	C	0.661144	-0.465846	0.338217
	C6423	C	0.638510	-0.375056	0.349345
	C6424	C	0.674841	-0.126732	0.287932
	C6425	C	0.665300	-0.126567	0.283736
	C6426	C	0.660839	-0.036547	0.282132
	C6427	C	0.651949	-0.035946	0.280009
	C6428	C	0.647275	-0.125451	0.279308
	C6429	C	0.651741	-0.215390	0.281035
	C6430	C	0.660628	-0.216024	0.283176
	C6431	C	0.637732	-0.125096	0.275141
	C6432	C	0.701008	-0.124810	0.287239
	C6433	C	0.710392	-0.125088	0.281619
	C6434	C	0.714771	-0.215330	0.279139
	C6435	C	0.723571	-0.216299	0.275574
	C6436	C	0.728239	-0.126830	0.274378
	C6437	C	0.723857	-0.036628	0.276862
	C6438	C	0.715051	-0.035711	0.280427
	C6439	C	0.737617	-0.127572	0.268732
	H6440	H	0.726838	-0.286618	0.273667
	H6441	H	0.711231	-0.284945	0.279997
	H6442	H	0.727909	-0.216831	0.337893
	H6443	H	0.712136	-0.215506	0.333874
	H6444	H	0.687847	-0.376825	0.278068
	H6445	H	0.688251	-0.126245	0.340432
	H6446	H	0.625382	-0.126091	0.340232
	H6447	H	0.750734	-0.376493	0.277846
	H6448	H	0.663989	-0.286142	0.284309
	H6449	H	0.648246	-0.285258	0.280631
	H6450	H	0.649198	-0.215675	0.344355
	H6451	H	0.664816	-0.216008	0.338164
	H6452	H	0.648583	0.034341	0.278736
	H6453	H	0.664351	0.033203	0.282505
	H6454	H	0.664502	-0.535932	0.336472
	H6455	H	0.648882	-0.535620	0.342596
	H6456	H	0.711747	-0.535256	0.335903
	H6457	H	0.727465	-0.536559	0.339927
	H6458	H	0.711775	0.034559	0.282330
	H6459	H	0.727366	0.033088	0.275984
	Al6460	Al	0.688075	-0.001030	0.309220
	Al6461	Al	0.688091	0.249039	0.309442
	Al6462	Al	0.624522	0.248941	0.253788
	Al6463	Al	0.624493	-0.000982	0.253864
	O6464	O	0.697489	0.041320	0.329033
	O6465	O	0.687978	0.124076	0.294270
	O6466	O	0.688142	0.374385	0.324419
	O6467	O	0.742008	0.037995	0.345632
	O6468	O	0.678749	0.038971	0.328730
	O6469	O	0.634732	0.040430	0.351379
	O6470	O	0.678931	0.207011	0.329368
	O6471	O	0.678515	0.288685	0.290184
	O6472	O	0.633976	0.290835	0.273292
	O6473	O	0.697712	0.209449	0.328325
	O6474	O	0.697223	0.291278	0.289297
	O6475	O	0.741231	0.288406	0.266097
	O6476	O	0.634867	0.208586	0.351872
	O6477	O	0.678661	0.457128	0.289699
	O6478	O	0.634143	0.459170	0.272928
	O6479	O	0.741417	0.456635	0.266545
	O6480	O	0.697413	0.459226	0.289813
	O6481	O	0.742226	0.206402	0.344964
	O6482	O	0.625494	0.374034	0.356468
	O6483	O	0.750709	0.123352	0.261691
	C6484	C	0.724401	0.213249	0.337472
	C6485	C	0.728853	0.123075	0.339211
	C6486	C	0.724178	0.033510	0.338670
	C6487	C	0.715290	0.033945	0.336445
	C6488	C	0.710853	0.124278	0.334596
	C6489	C	0.715519	0.213809	0.335195
	C6490	C	0.701332	0.125144	0.330473
	C6491	C	0.738375	0.122421	0.343537
	C6492	C	0.675159	0.123038	0.331291
	C6493	C	0.665766	0.123468	0.336808
	C6494	C	0.661346	0.213529	0.339061
	C6495	C	0.652536	0.214032	0.342516
	C6496	C	0.647894	0.124497	0.343889
	C6497	C	0.652303	0.034486	0.341509
	C6498	C	0.661112	0.034018	0.338027
	C6499	C	0.638496	0.124536	0.349400
	C6500	C	0.674841	0.372983	0.288141
	C6501	C	0.665346	0.373193	0.283817
	C6502	C	0.660898	0.463328	0.282141
	C6503	C	0.651995	0.464032	0.279887
	C6504	C	0.647333	0.374402	0.279171
	C6505	C	0.651784	0.284473	0.280909
	C6506	C	0.660690	0.283649	0.283164
	C6507	C	0.637811	0.374860	0.274810
	C6508	C	0.701015	0.375077	0.287212
	C6509	C	0.710398	0.374543	0.281615
	C6510	C	0.714808	0.284400	0.279182
	C6511	C	0.723599	0.283731	0.275640
	C6512	C	0.728277	0.373040	0.274311
	C6513	C	0.723864	0.463205	0.276650
	C6514	C	0.715075	0.463976	0.280208
	C6515	C	0.737651	0.372681	0.268627
	H6516	H	0.726930	0.213562	0.273892
	H6517	H	0.711308	0.214805	0.280189
	H6518	H	0.727946	0.283191	0.337639
	H6519	H	0.712190	0.284189	0.333747
	H6520	H	0.687818	0.124611	0.278086
	H6521	H	0.688175	0.374401	0.340512
	H6522	H	0.625360	0.374033	0.340284
	H6523	H	0.750930	0.122788	0.277742
	H6524	H	0.664012	0.213233	0.284480
	H6525	H	0.648257	0.214767	0.280452
	H6526	H	0.649239	0.284463	0.344242
	H6527	H	0.664857	0.283214	0.338169
	H6528	H	0.648679	0.534419	0.278668
	H6529	H	0.664405	0.533306	0.282662
	H6530	H	0.664408	-0.036403	0.336327
	H6531	H	0.648792	-0.035348	0.342400
	H6532	H	0.711761	-0.035910	0.335944
	H6533	H	0.727512	-0.036909	0.339859
	H6534	H	0.711768	0.534073	0.282019
	H6535	H	0.727366	0.532873	0.275712
	Al6536	Al	0.689100	-0.501175	0.427150
	Al6537	Al	0.689096	-0.251289	0.426908
	Al6538	Al	0.625543	-0.250871	0.371490
	Al6539	Al	0.625581	-0.500845	0.371411
	O6540	O	0.698522	-0.459363	0.446700
	O6541	O	0.688959	-0.376518	0.411948
	O6542	O	0.689177	-0.126129	0.441924
	O6543	O	0.743070	-0.461689	0.463478
	O6544	O	0.679739	-0.461386	0.446538
	O6545	O	0.635721	-0.459399	0.469255
	O6546	O	0.679935	-0.293000	0.446985
	O6547	O	0.679455	-0.211584	0.407791
	O6548	O	0.634968	-0.208962	0.391228
	O6549	O	0.698679	-0.290779	0.446079
	O6550	O	0.698198	-0.209147	0.406867
	O6551	O	0.742271	-0.211496	0.384307
	O6552	O	0.635942	-0.291143	0.469920
	O6553	O	0.679653	-0.043099	0.407199
	O6554	O	0.635144	-0.040644	0.390732
	O6555	O	0.742407	-0.043152	0.384720
	O6556	O	0.698421	-0.040856	0.407558
	O6557	O	0.743184	-0.293425	0.463186
	O6558	O	0.626489	-0.126666	0.474258
	O6559	O	0.751741	-0.376418	0.379842
	C6560	C	0.725427	-0.286689	0.455452
	C6561	C	0.729866	-0.376974	0.457042
	C6562	C	0.725178	-0.466369	0.456340
	C6563	C	0.716296	-0.465455	0.454073
	C6564	C	0.711857	-0.375179	0.452367
	C6565	C	0.716546	-0.285792	0.453124
	C6566	C	0.702349	-0.374959	0.448097
	C6567	C	0.739370	-0.377439	0.461436
	C6568	C	0.676153	-0.376751	0.448978
	C6569	C	0.666764	-0.376665	0.454639
	C6570	C	0.662350	-0.286475	0.456894
	C6571	C	0.653535	-0.286107	0.460426
	C6572	C	0.648914	-0.375939	0.461815
	C6573	C	0.653329	-0.466151	0.459558
	C6574	C	0.662144	-0.466513	0.456016
	C6575	C	0.639512	-0.375385	0.467369
	C6576	C	0.675829	-0.127296	0.405727
	C6577	C	0.666314	-0.126847	0.401625
	C6578	C	0.661872	-0.036523	0.399823
	C6579	C	0.652995	-0.035842	0.397582
	C6580	C	0.648315	-0.125533	0.397038
	C6581	C	0.652769	-0.215716	0.398724
	C6582	C	0.661642	-0.216518	0.400995
	C6583	C	0.638793	-0.124971	0.392755
	C6584	C	0.701978	-0.125283	0.404840
	C6585	C	0.711393	-0.125832	0.399311
	C6586	C	0.715789	-0.216161	0.396991
	C6587	C	0.724595	-0.216763	0.393480
	C6588	C	0.729238	-0.127135	0.392069
	C6589	C	0.724850	-0.036832	0.394478
	C6590	C	0.716042	-0.036218	0.397956
	C6591	C	0.738648	-0.127331	0.386750
	H6592	H	0.727899	-0.287043	0.391806
	H6593	H	0.712277	-0.285920	0.397974
	H6594	H	0.728950	-0.217136	0.456062
	H6595	H	0.713229	-0.215440	0.451876
	H6596	H	0.688691	-0.376473	0.395868
	H6597	H	0.689235	-0.125976	0.458017
	H6598	H	0.626380	-0.126909	0.458177
	H6599	H	0.752086	-0.376653	0.395908
	H6600	H	0.664993	-0.286536	0.402267
	H6601	H	0.649246	-0.285370	0.398264
	H6602	H	0.650230	-0.215786	0.462057
	H6603	H	0.665813	-0.216426	0.455862
	H6604	H	0.649641	0.034413	0.396139
	H6605	H	0.665415	0.033183	0.400142
	H6606	H	0.665451	-0.536547	0.454268
	H6607	H	0.649852	-0.535743	0.460561
	H6608	H	0.712762	-0.535116	0.453646
	H6609	H	0.728508	-0.536839	0.457713
	H6610	H	0.712732	0.033981	0.399726
	H6611	H	0.728328	0.033218	0.393583
	Al6612	Al	0.689074	-0.000857	0.427029
	Al6613	Al	0.689098	0.248853	0.427081
	Al6614	Al	0.625549	0.249009	0.371449
	Al6615	Al	0.625540	-0.001048	0.371420
	O6616	O	0.698482	0.040546	0.446715
	O6617	O	0.688961	0.123678	0.411987
	O6618	O	0.689190	0.373917	0.442247
	O6619	O	0.743007	0.037756	0.463481
	O6620	O	0.679750	0.038282	0.446459
	O6621	O	0.635736	0.040645	0.469302
	O6622	O	0.679939	0.206700	0.447092
	O6623	O	0.679488	0.288670	0.408148
	O6624	O	0.634941	0.291263	0.391209
	O6625	O	0.698675	0.208929	0.446130
	O6626	O	0.698228	0.290527	0.407061
	O6627	O	0.742232	0.288408	0.384141
	O6628	O	0.635917	0.209091	0.469927
	O6629	O	0.679672	0.456769	0.407306
	O6630	O	0.635169	0.459438	0.390656
	O6631	O	0.742441	0.456646	0.384835
	O6632	O	0.698424	0.458751	0.407616
	O6633	O	0.743209	0.206033	0.462935
	O6634	O	0.626477	0.373588	0.474289
	O6635	O	0.751664	0.123765	0.379931
	C6636	C	0.725402	0.212792	0.455530
	C6637	C	0.729850	0.122499	0.457285
	C6638	C	0.725164	0.032778	0.456476
	C6639	C	0.716288	0.033556	0.454210
	C6640	C	0.711833	0.123824	0.452628
	C6641	C	0.716530	0.213481	0.453278
	C6642	C	0.702320	0.124567	0.448251
	C6643	C	0.739377	0.122177	0.461439
	C6644	C	0.676157	0.122480	0.449076
	C6645	C	0.666770	0.123243	0.454623
	C6646	C	0.662358	0.213341	0.457027
	C6647	C	0.653540	0.213838	0.460499
	C6648	C	0.648906	0.124075	0.461809
	C6649	C	0.653311	0.033880	0.459354
	C6650	C	0.662128	0.033395	0.455898
	C6651	C	0.639515	0.124676	0.467313
	C6652	C	0.675835	0.372851	0.405946
	C6653	C	0.666313	0.373148	0.401619
	C6654	C	0.661888	0.463413	0.399855
	C6655	C	0.653000	0.463952	0.397571
	C6656	C	0.648320	0.374469	0.396885
	C6657	C	0.652751	0.284198	0.398695
	C6658	C	0.661641	0.283602	0.401009
	C6659	C	0.638794	0.375021	0.392778
	C6660	C	0.702011	0.374486	0.405076
	C6661	C	0.711388	0.374381	0.399394
	C6662	C	0.715804	0.284200	0.397209
	C6663	C	0.724614	0.283539	0.393641
	C6664	C	0.729258	0.373132	0.392314
	C6665	C	0.724834	0.463107	0.394517
	C6666	C	0.716018	0.464023	0.398017
	C6667	C	0.738631	0.372714	0.386660
	H6668	H	0.727909	0.213073	0.391984
	H6669	H	0.712321	0.214200	0.398431
	H6670	H	0.728939	0.282409	0.455999
	H6671	H	0.713168	0.283513	0.452129
	H6672	H	0.688697	0.124632	0.395871
	H6673	H	0.689217	0.373914	0.458293
	H6674	H	0.626372	0.372504	0.458260
	H6675	H	0.751669	0.123436	0.396059
	H6676	H	0.664968	0.213411	0.402274
	H6677	H	0.649229	0.214511	0.398284
	H6678	H	0.650220	0.284017	0.462357
	H6679	H	0.665844	0.283201	0.456212
	H6680	H	0.649684	0.534463	0.396238
	H6681	H	0.665405	0.533278	0.400192
	H6682	H	0.665422	-0.036722	0.454205
	H6683	H	0.649820	-0.035951	0.460204
	H6684	H	0.712740	-0.036314	0.453744
	H6685	H	0.728528	-0.037546	0.457640
	H6686	H	0.712724	0.534206	0.399866
	H6687	H	0.728317	0.532771	0.393549
	Al6688	Al	0.690088	-0.501854	0.545195
	Al6689	Al	0.690082	-0.251485	0.545164
	Al6690	Al	0.626582	-0.251360	0.489392
	Al6691	Al	0.626583	-0.501313	0.489258
	O6692	O	0.699492	-0.459960	0.564979
	O6693	O	0.689940	-0.376525	0.530133
	O6694	O	0.690232	-0.126325	0.560159
	O6695	O	0.744043	-0.463006	0.581306
	O6696	O	0.680741	-0.461475	0.564526
	O6697	O	0.636701	-0.460080	0.587702
	O6698	O	0.680886	-0.292927	0.564995
	O6699	O	0.680514	-0.211692	0.525875
	O6700	O	0.635985	-0.208943	0.509130
	O6701	O	0.699714	-0.291533	0.564193
	O6702	O	0.699221	-0.209799	0.525166
	O6703	O	0.743209	-0.211775	0.502192
	O6704	O	0.636882	-0.291780	0.588138
	O6705	O	0.680671	-0.043303	0.525463
	O6706	O	0.636196	-0.040809	0.508459
	O6707	O	0.743405	-0.043509	0.502718
	O6708	O	0.699372	-0.041688	0.525542
	O6709	O	0.744284	-0.294673	0.580510
	O6710	O	0.627499	-0.126345	0.592565
	O6711	O	0.752669	-0.376769	0.497915
	C6712	C	0.726437	-0.287767	0.573664
	C6713	C	0.730874	-0.378019	0.575256
	C6714	C	0.726185	-0.467286	0.574613
	C6715	C	0.717291	-0.466456	0.572442
	C6716	C	0.712863	-0.376356	0.570760
	C6717	C	0.717539	-0.286984	0.571471
	C6718	C	0.703346	-0.375878	0.566395
	C6719	C	0.740412	-0.378553	0.579304
	C6720	C	0.677133	-0.377114	0.567136
	C6721	C	0.667748	-0.377014	0.572638
	C6722	C	0.663304	-0.286963	0.574961
	C6723	C	0.654507	-0.286729	0.578509
	C6724	C	0.649879	-0.376474	0.580053
	C6725	C	0.654310	-0.466580	0.577626
	C6726	C	0.663109	-0.466771	0.574076
	C6727	C	0.640479	-0.376146	0.585546
	C6728	C	0.676856	-0.127407	0.523882
	C6729	C	0.667351	-0.127002	0.519551
	C6730	C	0.662909	-0.036841	0.517958
	C6731	C	0.654023	-0.036270	0.515700
	C6732	C	0.649361	-0.125839	0.514939
	C6733	C	0.653797	-0.216083	0.516481
	C6734	C	0.662680	-0.216670	0.518780
	C6735	C	0.639828	-0.125202	0.510521
	C6736	C	0.702983	-0.125952	0.523018
	C6737	C	0.712391	-0.126080	0.517480
	C6738	C	0.716808	-0.216253	0.515098
	C6739	C	0.725602	-0.216664	0.511522
	C6740	C	0.730233	-0.126986	0.510153
	C6741	C	0.725833	-0.036798	0.512509
	C6742	C	0.717034	-0.036492	0.516071
	C6743	C	0.739630	-0.127428	0.504699
	H6744	H	0.728922	-0.286852	0.509658
	H6745	H	0.713313	-0.286269	0.515961
	H6746	H	0.729962	-0.218263	0.574148
	H6747	H	0.714227	-0.216934	0.570169
	H6748	H	0.689723	-0.377006	0.514057
	H6749	H	0.690495	-0.125695	0.576245
	H6750	H	0.627361	-0.126332	0.576505
	H6751	H	0.752812	-0.377292	0.514079
	H6752	H	0.666041	-0.286890	0.520056
	H6753	H	0.650277	-0.285890	0.515932
	H6754	H	0.651177	-0.216678	0.580133
	H6755	H	0.666783	-0.217186	0.573906
	H6756	H	0.650676	0.033701	0.514486
	H6757	H	0.666418	0.033047	0.518529
	H6758	H	0.666448	-0.536819	0.572258
	H6759	H	0.650810	-0.536552	0.578436
	H6760	H	0.713785	-0.536089	0.571945
	H6761	H	0.729505	-0.537745	0.575824
	H6762	H	0.713701	0.033618	0.517764
	H6763	H	0.729314	0.032884	0.511445
	Al6764	Al	0.690060	-0.001555	0.545131
	Al6765	Al	0.690112	0.248611	0.545082
	Al6766	Al	0.626596	0.248612	0.489345
	Al6767	Al	0.626609	-0.001649	0.489351
	O6768	O	0.699502	0.040469	0.564905
	O6769	O	0.689938	0.123577	0.530095
	O6770	O	0.690234	0.373469	0.560155
	O6771	O	0.744030	0.036987	0.581361
	O6772	O	0.680694	0.038273	0.564393
	O6773	O	0.636760	0.040516	0.587575
	O6774	O	0.680935	0.206631	0.565140
	O6775	O	0.680523	0.288455	0.525950
	O6776	O	0.636004	0.290713	0.509089
	O6777	O	0.699696	0.208443	0.564312
	O6778	O	0.699251	0.290241	0.525078
	O6779	O	0.743269	0.288246	0.502289
	O6780	O	0.636982	0.208650	0.588491
	O6781	O	0.680681	0.456479	0.525454
	O6782	O	0.636211	0.459035	0.508358
	O6783	O	0.743413	0.456594	0.502718
	O6784	O	0.699381	0.458605	0.525545
	O6785	O	0.744249	0.205198	0.580640
	O6786	O	0.627443	0.373343	0.592723
	O6787	O	0.752694	0.123557	0.497772
	C6788	C	0.726436	0.212356	0.573545
	C6789	C	0.730868	0.122274	0.575232
	C6790	C	0.726191	0.032955	0.574632
	C6791	C	0.717306	0.033579	0.572408
	C6792	C	0.712863	0.123655	0.570761
	C6793	C	0.717553	0.212960	0.571346
	C6794	C	0.703333	0.124288	0.566382
	C6795	C	0.740402	0.121386	0.579276
	C6796	C	0.677148	0.122704	0.567006
	C6797	C	0.667772	0.123024	0.572704
	C6798	C	0.663387	0.213263	0.575087
	C6799	C	0.654571	0.213738	0.578713
	C6800	C	0.649945	0.124097	0.580049
	C6801	C	0.654340	0.033875	0.577661
	C6802	C	0.663157	0.033288	0.574053
	C6803	C	0.640546	0.124332	0.585706
	C6804	C	0.676855	0.372653	0.523892
	C6805	C	0.667341	0.373062	0.519593
	C6806	C	0.662887	0.463248	0.517900
	C6807	C	0.654011	0.463877	0.515572
	C6808	C	0.649348	0.374273	0.514786
	C6809	C	0.653810	0.284168	0.516543
	C6810	C	0.662680	0.283561	0.518860
	C6811	C	0.639837	0.374667	0.510523
	C6812	C	0.703001	0.374363	0.522993
	C6813	C	0.712392	0.374173	0.517430
	C6814	C	0.716799	0.284028	0.514970
	C6815	C	0.725606	0.283645	0.511515
	C6816	C	0.730259	0.373241	0.510290
	C6817	C	0.725833	0.463474	0.512629
	C6818	C	0.717025	0.463894	0.516096
	C6819	C	0.739656	0.372458	0.504828
	H6820	H	0.728913	0.213204	0.509644
	H6821	H	0.713292	0.214469	0.515803
	H6822	H	0.729947	0.282088	0.574023
	H6823	H	0.714215	0.283113	0.570142
	H6824	H	0.689639	0.123045	0.513983
	H6825	H	0.690517	0.373129	0.576202
	H6826	H	0.627083	0.374264	0.576607
	H6827	H	0.752788	0.123606	0.513975
	H6828	H	0.666041	0.213172	0.520106
	H6829	H	0.650309	0.214313	0.516061
	H6830	H	0.651298	0.284020	0.580580
	H6831	H	0.666875	0.283066	0.574107
	H6832	H	0.650665	0.534175	0.514291
	H6833	H	0.666414	0.532816	0.518440
	H6834	H	0.666431	-0.037053	0.572201
	H6835	H	0.650871	-0.035957	0.578607
	H6836	H	0.713790	-0.035860	0.572027
	H6837	H	0.729535	-0.037191	0.575936
	H6838	H	0.713713	0.533992	0.517778
	H6839	H	0.729324	0.533232	0.511663
	Al6840	Al	0.690936	-0.502939	0.663830
	Al6841	Al	0.690928	-0.253507	0.663870
	Al6842	Al	0.627600	-0.251533	0.607598
	Al6843	Al	0.627608	-0.501521	0.607840
	O6844	O	0.699594	-0.461812	0.685933
	O6845	O	0.690983	-0.377977	0.648868
	O6846	O	0.690705	-0.128157	0.678881
	O6847	O	0.737708	-0.459917	0.752093
	O6848	O	0.681483	-0.463192	0.682832
	O6849	O	0.637805	-0.461721	0.707458
	O6850	O	0.681616	-0.294666	0.683266
	O6851	O	0.681503	-0.213230	0.643997
	O6852	O	0.637029	-0.209923	0.627220
	O6853	O	0.699751	-0.293641	0.685496
	O6854	O	0.700381	-0.211827	0.645211
	O6855	O	0.744004	-0.212955	0.620279
	O6856	O	0.637981	-0.293213	0.707832
	O6857	O	0.681745	-0.045036	0.643331
	O6858	O	0.637179	-0.041824	0.626853
	O6859	O	0.744161	-0.044719	0.620666
	O6860	O	0.700496	-0.043430	0.645736
	O6861	O	0.737842	-0.291676	0.751737
	O6862	O	0.628496	-0.128301	0.711048
	O6863	O	0.753114	-0.378089	0.616266
	C6864	C	0.722659	-0.287417	0.724731
	C6865	C	0.726444	-0.376155	0.731918
	C6866	C	0.722383	-0.465271	0.725942
	C6867	C	0.714794	-0.465750	0.712911
	C6868	C	0.711037	-0.377041	0.705584
	C6869	C	0.715067	-0.287891	0.711690
	C6870	C	0.702878	-0.377626	0.691223
	C6871	C	0.734571	-0.375679	0.746361
	C6872	C	0.677935	-0.378957	0.685671
	C6873	C	0.668635	-0.378730	0.692064
	C6874	C	0.664288	-0.288779	0.694988
	C6875	C	0.655548	-0.288534	0.699166
	C6876	C	0.650949	-0.378145	0.700447
	C6877	C	0.655307	-0.468005	0.697912
	C6878	C	0.664063	-0.468218	0.693748
	C6879	C	0.641578	-0.377588	0.705697
	C6880	C	0.677882	-0.128930	0.641904
	C6881	C	0.668369	-0.128060	0.637947
	C6882	C	0.663926	-0.037900	0.636228
	C6883	C	0.655049	-0.036948	0.633993
	C6884	C	0.650356	-0.126282	0.633275
	C6885	C	0.654811	-0.216443	0.635084
	C6886	C	0.663684	-0.217413	0.637367
	C6887	C	0.640861	-0.125867	0.628867
	C6888	C	0.704135	-0.127655	0.643499
	C6889	C	0.713481	-0.127788	0.638190
	C6890	C	0.717837	-0.217657	0.635645
	C6891	C	0.726581	-0.218176	0.631276
	C6892	C	0.731158	-0.128589	0.629468
	C6893	C	0.726818	-0.038734	0.632488
	C6894	C	0.718090	-0.038406	0.636834
	C6895	C	0.740449	-0.128856	0.623040
	H6896	H	0.729879	-0.287703	0.629103
	H6897	H	0.714346	-0.286981	0.636938
	H6898	H	0.725679	-0.218536	0.729436
	H6899	H	0.712235	-0.219299	0.706088
	H6900	H	0.691014	-0.378166	0.632802
	H6901	H	0.690262	-0.128188	0.694870
	H6902	H	0.628347	-0.128162	0.695055
	H6903	H	0.752510	-0.378348	0.632250
	H6904	H	0.667009	-0.287556	0.638723
	H6905	H	0.651270	-0.285969	0.634697
	H6906	H	0.652233	-0.218915	0.701270
	H6907	H	0.667768	-0.219190	0.693742
	H6908	H	0.651710	0.033335	0.632757
	H6909	H	0.667472	0.031808	0.636649
	H6910	H	0.667362	-0.537654	0.691579
	H6911	H	0.651815	-0.537643	0.699075
	H6912	H	0.711751	-0.534806	0.708317
	H6913	H	0.725191	-0.534037	0.731625
	H6914	H	0.714831	0.031400	0.639154
	H6915	H	0.730289	0.030813	0.631255
	Al6916	Al	0.690953	-0.002809	0.663884
	Al6917	Al	0.690958	0.246458	0.663790
	Al6918	Al	0.627620	0.248644	0.607774
	Al6919	Al	0.627607	-0.001420	0.607664
	O6920	O	0.699654	0.039028	0.685808
	O6921	O	0.691012	0.121752	0.648864
	O6922	O	0.690680	0.371868	0.678820
	O6923	O	0.737739	0.040667	0.752084
	O6924	O	0.681470	0.036967	0.682927
	O6925	O	0.637768	0.038884	0.707233
	O6926	O	0.681628	0.205370	0.683370
	O6927	O	0.681530	0.286519	0.643804
	O6928	O	0.637002	0.290349	0.627547
	O6929	O	0.699834	0.206954	0.685238
	O6930	O	0.700332	0.288429	0.645021
	O6931	O	0.744009	0.286655	0.620206
	O6932	O	0.637949	0.207128	0.707749
	O6933	O	0.681734	0.454729	0.643224
	O6934	O	0.637233	0.458489	0.626868
	O6935	O	0.744141	0.455154	0.620673
	O6936	O	0.700516	0.457044	0.645737
	O6937	O	0.737867	0.208630	0.751641
	O6938	O	0.628513	0.371707	0.711135
	O6939	O	0.753192	0.122025	0.616205
	C6940	C	0.722635	0.212818	0.725022
	C6941	C	0.726442	0.124075	0.732033
	C6942	C	0.722471	0.034862	0.725669
	C6943	C	0.714886	0.034464	0.712572
	C6944	C	0.711064	0.123283	0.705610
	C6945	C	0.715052	0.212392	0.711915
	C6946	C	0.702950	0.123107	0.691074
	C6947	C	0.734596	0.124565	0.746334
	C6948	C	0.677911	0.121177	0.685635
	C6949	C	0.668605	0.121330	0.691921
	C6950	C	0.664274	0.211373	0.694867
	C6951	C	0.655517	0.211682	0.699065
	C6952	C	0.650912	0.122109	0.700303
	C6953	C	0.655283	0.032023	0.697838
	C6954	C	0.664029	0.031659	0.693627
	C6955	C	0.641533	0.122721	0.705493
	C6956	C	0.677891	0.370828	0.641856
	C6957	C	0.668359	0.371419	0.637894
	C6958	C	0.663942	0.461641	0.636201
	C6959	C	0.655062	0.462697	0.633988
	C6960	C	0.650373	0.373466	0.633328
	C6961	C	0.654790	0.283250	0.635015
	C6962	C	0.663665	0.282199	0.637236
	C6963	C	0.640871	0.374250	0.629012
	C6964	C	0.704110	0.372649	0.643310
	C6965	C	0.713478	0.372305	0.637944
	C6966	C	0.717825	0.282308	0.635518
	C6967	C	0.726552	0.281585	0.631183
	C6968	C	0.731150	0.371038	0.629386
	C6969	C	0.726827	0.461090	0.632283
	C6970	C	0.718085	0.461771	0.636582
	C6971	C	0.740436	0.371067	0.622978
	H6972	H	0.729811	0.211542	0.628987
	H6973	H	0.714336	0.212894	0.636720
	H6974	H	0.725640	0.282193	0.729840
	H6975	H	0.712193	0.281307	0.706484
	H6976	H	0.691059	0.121483	0.632730
	H6977	H	0.690316	0.371762	0.694868
	H6978	H	0.628558	0.371686	0.695109
	H6979	H	0.752782	0.121844	0.632196
	H6980	H	0.666992	0.212010	0.638493
	H6981	H	0.651253	0.213827	0.634538
	H6982	H	0.652215	0.281651	0.701251
	H6983	H	0.667747	0.280929	0.693728
	H6984	H	0.651739	0.532957	0.632735
	H6985	H	0.667482	0.531297	0.636649
	H6986	H	0.667312	-0.038191	0.691457
	H6987	H	0.651796	-0.037526	0.698982
	H6988	H	0.711900	-0.034979	0.707629
	H6989	H	0.725336	-0.033924	0.730988
	H6990	H	0.714798	0.531307	0.638778
	H6991	H	0.730327	0.530293	0.631031
	Al6992	Al	0.684016	-0.500018	0.836026
	Al6993	Al	0.684031	-0.249248	0.835905
	Al6994	Al	0.628456	-0.252761	0.726049
	Al6995	Al	0.628408	-0.503474	0.726083
	O6996	O	0.693225	-0.457665	0.856493
	O6997	O	0.684315	-0.374570	0.820953
	O6998	O	0.683928	-0.124540	0.850957
	O6999	O	0.737757	-0.461304	0.872748
	O7000	O	0.674456	-0.460010	0.854154
	O7001	O	0.630832	-0.458658	0.879380
	O7002	O	0.674669	-0.291514	0.854753
	O7003	O	0.675171	-0.209475	0.814372
	O7004	O	0.637110	-0.211484	0.748144
	O7005	O	0.693440	-0.289222	0.855895
	O7006	O	0.693360	-0.208471	0.816542
	O7007	O	0.737046	-0.209771	0.792023
	O7008	O	0.630995	-0.290151	0.879912
	O7009	O	0.675307	-0.041459	0.814024
	O7010	O	0.637260	-0.043467	0.747579
	O7011	O	0.737187	-0.041442	0.792582
	O7012	O	0.693457	-0.039986	0.816927
	O7013	O	0.737979	-0.293189	0.871953
	O7014	O	0.621751	-0.125141	0.883932
	O7015	O	0.746516	-0.374663	0.788620
	C7016	C	0.720179	-0.285685	0.864548
	C7017	C	0.724616	-0.376026	0.866346
	C7018	C	0.719933	-0.465452	0.865848
	C7019	C	0.711056	-0.464755	0.863704
	C7020	C	0.706616	-0.374480	0.861893
	C7021	C	0.711300	-0.285052	0.862408
	C7022	C	0.697084	-0.373677	0.857918
	C7023	C	0.734140	-0.376887	0.870629
	C7024	C	0.670883	-0.375462	0.856478
	C7025	C	0.661507	-0.374823	0.861798
	C7026	C	0.657119	-0.284896	0.864319
	C7027	C	0.648376	-0.284677	0.868615
	C7028	C	0.643824	-0.374387	0.870439
	C7029	C	0.648177	-0.464178	0.867529
	C7030	C	0.656921	-0.464408	0.863221
	C7031	C	0.634539	-0.374313	0.877008
	C7032	C	0.672026	-0.125469	0.808664
	C7033	C	0.663892	-0.125711	0.794285
	C7034	C	0.660088	-0.037035	0.787249
	C7035	C	0.652499	-0.037583	0.774190
	C7036	C	0.648515	-0.126725	0.767842
	C7037	C	0.652333	-0.215303	0.774814
	C7038	C	0.659912	-0.214685	0.787888
	C7039	C	0.640394	-0.127144	0.753417
	C7040	C	0.697060	-0.124180	0.814151
	C7041	C	0.706353	-0.124251	0.807864
	C7042	C	0.710690	-0.214153	0.804942
	C7043	C	0.719444	-0.214344	0.800754
	C7044	C	0.724047	-0.125066	0.799498
	C7045	C	0.719682	-0.034997	0.801884
	C7046	C	0.710919	-0.034743	0.806061
	C7047	C	0.733434	-0.125597	0.794296
	H7048	H	0.722754	-0.284386	0.798533
	H7049	H	0.707228	-0.283891	0.806139
	H7050	H	0.723713	-0.216193	0.864777
	H7051	H	0.707959	-0.214997	0.860911
	H7052	H	0.684859	-0.375398	0.804949
	H7053	H	0.683940	-0.124825	0.866962
	H7054	H	0.622115	-0.124171	0.867893
	H7055	H	0.746567	-0.374362	0.804680
	H7056	H	0.662790	-0.283645	0.793243
	H7057	H	0.649343	-0.284592	0.769930
	H7058	H	0.645077	-0.214884	0.870762
	H7059	H	0.660607	-0.215219	0.863061
	H7060	H	0.649623	0.031044	0.768775
	H7061	H	0.663108	0.032023	0.792054
	H7062	H	0.660222	-0.534004	0.861086
	H7063	H	0.644687	-0.533654	0.868810
	H7064	H	0.707540	-0.534251	0.863245
	H7065	H	0.723278	-0.535823	0.867062
	H7066	H	0.707632	0.035080	0.808094
	H7067	H	0.723140	0.034335	0.800605
	Al7068	Al	0.684003	-0.000104	0.836020
	Al7069	Al	0.684021	0.250607	0.835976
	Al7070	Al	0.628438	0.247314	0.726062
	Al7071	Al	0.628385	-0.003676	0.726066
	O7072	O	0.693216	0.042178	0.856565
	O7073	O	0.684307	0.125356	0.820987
	O7074	O	0.683930	0.375176	0.850961
	O7075	O	0.737769	0.038465	0.872846
	O7076	O	0.674464	0.040443	0.854177
	O7077	O	0.630806	0.042062	0.879396
	O7078	O	0.674621	0.208785	0.854807
	O7079	O	0.675187	0.290572	0.814360
	O7080	O	0.637146	0.288674	0.748012
	O7081	O	0.693444	0.210437	0.855907
	O7082	O	0.693372	0.291729	0.816633
	O7083	O	0.737018	0.290469	0.791711
	O7084	O	0.630989	0.210499	0.879881
	O7085	O	0.675323	0.458514	0.813882
	O7086	O	0.637247	0.456802	0.747697
	O7087	O	0.737204	0.458660	0.792391
	O7088	O	0.693506	0.460110	0.817132
	O7089	O	0.737999	0.206601	0.872043
	O7090	O	0.621726	0.375049	0.883974
	O7091	O	0.746546	0.125688	0.788706
	C7092	C	0.720200	0.213525	0.864719
	C7093	C	0.724630	0.123311	0.866394
	C7094	C	0.719941	0.034076	0.865836
	C7095	C	0.711054	0.034854	0.863651
	C7096	C	0.706621	0.125130	0.861931
	C7097	C	0.711317	0.214356	0.862509
	C7098	C	0.697075	0.125923	0.857898
	C7099	C	0.734154	0.122699	0.870637
	C7100	C	0.670852	0.124649	0.856451
	C7101	C	0.661475	0.125080	0.861731
	C7102	C	0.657111	0.214881	0.864300
	C7103	C	0.648368	0.215065	0.868633
	C7104	C	0.643802	0.125605	0.870449
	C7105	C	0.648144	0.035937	0.867448
	C7106	C	0.656892	0.035702	0.863126
	C7107	C	0.634523	0.126144	0.877034
	C7108	C	0.672054	0.374306	0.808598
	C7109	C	0.663917	0.373988	0.794231
	C7110	C	0.660118	0.462536	0.787168
	C7111	C	0.652528	0.462084	0.774057
	C7112	C	0.648521	0.373124	0.767862
	C7113	C	0.652306	0.284453	0.774980
	C7114	C	0.659903	0.284904	0.788099
	C7115	C	0.640405	0.372826	0.753426
	C7116	C	0.697075	0.376003	0.814241
	C7117	C	0.706367	0.375845	0.807864
	C7118	C	0.710708	0.286108	0.804888
	C7119	C	0.719450	0.285614	0.800544
	C7120	C	0.724039	0.375049	0.799156
	C7121	C	0.719675	0.464828	0.801723
	C7122	C	0.710928	0.465367	0.806030
	C7123	C	0.733410	0.374538	0.793998
	H7124	H	0.722730	0.215781	0.798332
	H7125	H	0.707238	0.216615	0.806157
	H7126	H	0.723728	0.283169	0.865086
	H7127	H	0.707982	0.284690	0.861156
	H7128	H	0.684813	0.125122	0.804966
	H7129	H	0.683856	0.374866	0.866943
	H7130	H	0.622078	0.374866	0.867951
	H7131	H	0.746506	0.125841	0.804790
	H7132	H	0.662745	0.216144	0.793532
	H7133	H	0.649298	0.215211	0.770231
	H7134	H	0.645067	0.284810	0.870840
	H7135	H	0.660599	0.284227	0.863100
	H7136	H	0.649720	0.531218	0.768561
	H7137	H	0.663129	0.531709	0.791863
	H7138	H	0.660188	-0.033840	0.860953
	H7139	H	0.644698	-0.033792	0.868694
	H7140	H	0.707552	-0.034781	0.863209
	H7141	H	0.723274	-0.036300	0.867068
	H7142	H	0.707641	0.535309	0.808188
	H7143	H	0.723144	0.534046	0.800476
	Al7144	Al	0.684895	-0.501137	0.954679
	Al7145	Al	0.684875	-0.251183	0.954692
	Al7146	Al	0.621538	-0.250452	0.898852
	Al7147	Al	0.621531	-0.499699	0.898953
	O7148	O	0.694281	-0.459256	0.974495
	O7149	O	0.684775	-0.375969	0.939725
	O7150	O	0.685027	-0.125838	0.969845
	O7151	O	0.738818	-0.461861	0.991268
	O7152	O	0.675521	-0.461753	0.974084
	O7153	O	0.631589	-0.459813	0.997457
	O7154	O	0.675719	-0.293729	0.974675
	O7155	O	0.675291	-0.210873	0.935648
	O7156	O	0.630749	-0.208490	0.919477
	O7157	O	0.694486	-0.290830	0.973914
	O7158	O	0.694025	-0.209327	0.934676
	O7159	O	0.738026	-0.211484	0.911314
	O7160	O	0.631730	-0.291617	0.997753
	O7161	O	0.675438	-0.042839	0.935105
	O7162	O	0.630939	-0.039986	0.918801
	O7163	O	0.738195	-0.043195	0.911777
	O7164	O	0.694226	-0.040877	0.935379
	O7165	O	0.738956	-0.293393	0.990986
	O7166	O	0.622221	-0.126806	1.002171
	O7167	O	0.747514	-0.376163	0.906906
	C7168	C	0.721193	-0.287153	0.983360
	C7169	C	0.725624	-0.377534	0.985206
	C7170	C	0.720966	-0.467343	0.984534
	C7171	C	0.712078	-0.466483	0.982264
	C7172	C	0.707625	-0.376118	0.980580
	C7173	C	0.712310	-0.286450	0.981071
	C7174	C	0.698120	-0.375304	0.976077
	C7175	C	0.735141	-0.377453	0.989333
	C7176	C	0.671952	-0.377639	0.976720
	C7177	C	0.662570	-0.377060	0.982428
	C7178	C	0.658167	-0.286876	0.984852
	C7179	C	0.649374	-0.286325	0.988517
	C7180	C	0.644747	-0.376048	0.989936
	C7181	C	0.649151	-0.466032	0.987389
	C7182	C	0.657932	-0.466552	0.983721
	C7183	C	0.635343	-0.375706	0.995408
	C7184	C	0.671632	-0.126803	0.933555
	C7185	C	0.662118	-0.126674	0.929180
	C7186	C	0.657688	-0.036439	0.927436
	C7187	C	0.648808	-0.035489	0.925251
	C7188	C	0.644121	-0.124984	0.924645
	C7189	C	0.648550	-0.215244	0.926279
	C7190	C	0.657433	-0.216178	0.928453
	C7191	C	0.634592	-0.124369	0.920745
	C7192	C	0.697790	-0.125257	0.932696
	C7193	C	0.707197	-0.125631	0.927127
	C7194	C	0.711587	-0.215910	0.924702
	C7195	C	0.720401	-0.216445	0.921086
	C7196	C	0.725055	-0.126817	0.919732
	C7197	C	0.720666	-0.036556	0.922249
	C7198	C	0.711857	-0.035925	0.925863
	C7199	C	0.734428	-0.127263	0.913947
	H7200	H	0.723697	-0.286600	0.919191
	H7201	H	0.708090	-0.285889	0.925664
	H7202	H	0.724730	-0.217452	0.983796
	H7203	H	0.708988	-0.216028	0.979600
	H7204	H	0.684609	-0.375993	0.923651
	H7205	H	0.685360	-0.125906	0.985913
	H7206	H	0.621982	-0.127211	0.986067
	H7207	H	0.747758	-0.376738	0.923052
	H7208	H	0.660787	-0.286483	0.929758
	H7209	H	0.645003	-0.284773	0.925940
	H7210	H	0.646062	-0.216098	0.990387
	H7211	H	0.661666	-0.217212	0.983882
	H7212	H	0.645477	0.034665	0.924006
	H7213	H	0.661217	0.033160	0.927905
	H7214	H	0.661228	-0.536535	0.981843
	H7215	H	0.645672	-0.535639	0.988405
	H7216	H	0.708555	-0.536091	0.981810
	H7217	H	0.724289	-0.537547	0.985894
	H7218	H	0.708571	0.034424	0.927745
	H7219	H	0.724157	0.033272	0.921255
	Al7220	Al	0.684905	-0.000627	0.954810
	Al7221	Al	0.684889	0.249054	0.954690
	Al7222	Al	0.621519	0.249855	0.898886
	Al7223	Al	0.621506	0.000368	0.898902
	O7224	O	0.694326	0.040767	0.974489
	O7225	O	0.684770	0.124034	0.939682
	O7226	O	0.685046	0.373992	0.969845
	O7227	O	0.738814	0.037655	0.991447
	O7228	O	0.675581	0.039332	0.974332
	O7229	O	0.631601	0.040313	0.997512
	O7230	O	0.675718	0.207489	0.974639
	O7231	O	0.675287	0.288634	0.935552
	O7232	O	0.630753	0.291783	0.919473
	O7233	O	0.694467	0.209029	0.973988
	O7234	O	0.694057	0.290895	0.934695
	O7235	O	0.738060	0.288423	0.911300
	O7236	O	0.631726	0.208365	0.997773
	O7237	O	0.675485	0.456795	0.934905
	O7238	O	0.630887	0.459873	0.919109
	O7239	O	0.738271	0.456877	0.911951
	O7240	O	0.694300	0.459093	0.935440
	O7241	O	0.738998	0.205846	0.990945
	O7242	O	0.622305	0.373185	1.002188
	O7243	O	0.747536	0.123599	0.906994
	C7244	C	0.721214	0.213001	0.983201
	C7245	C	0.725649	0.122690	0.985084
	C7246	C	0.720956	0.033427	0.984535
	C7247	C	0.712073	0.034129	0.982207
	C7248	C	0.707660	0.124357	0.980318
	C7249	C	0.712331	0.213876	0.980863
	C7250	C	0.698139	0.124880	0.976088
	C7251	C	0.735174	0.121908	0.989362
	C7252	C	0.671967	0.123446	0.976732
	C7253	C	0.662587	0.123664	0.982338
	C7254	C	0.658140	0.213527	0.984672
	C7255	C	0.649342	0.213474	0.988328
	C7256	C	0.644730	0.123785	0.989736
	C7257	C	0.649172	0.033873	0.987331
	C7258	C	0.657977	0.033872	0.983698
	C7259	C	0.635354	0.124165	0.995354
	C7260	C	0.671640	0.372988	0.933364
	C7261	C	0.662129	0.373424	0.929104
	C7262	C	0.657687	0.463662	0.927356
	C7263	C	0.648796	0.464506	0.925303
	C7264	C	0.644101	0.375189	0.924871
	C7265	C	0.648549	0.284885	0.926498
	C7266	C	0.657439	0.284044	0.928528
	C7267	C	0.634573	0.375700	0.920962
	C7268	C	0.697872	0.374859	0.932765
	C7269	C	0.707269	0.374367	0.927188
	C7270	C	0.711665	0.284262	0.924767
	C7271	C	0.720461	0.283679	0.921059
	C7272	C	0.725106	0.373280	0.919615
	C7273	C	0.720715	0.463373	0.922101
	C7274	C	0.711922	0.464029	0.925823
	C7275	C	0.734488	0.372822	0.913955
	H7276	H	0.723743	0.213329	0.919200
	H7277	H	0.708156	0.214354	0.925794
	H7278	H	0.724733	0.282885	0.983478
	H7279	H	0.708996	0.284201	0.979479
	H7280	H	0.684373	0.124027	0.923548
	H7281	H	0.685350	0.374682	0.985956
	H7282	H	0.622192	0.373427	0.986003
	H7283	H	0.747724	0.123959	0.923128
	H7284	H	0.660749	0.213799	0.929832
	H7285	H	0.645014	0.215489	0.926260
	H7286	H	0.646012	0.283301	0.990123
	H7287	H	0.661609	0.283737	0.983638
	H7288	H	0.645462	0.534646	0.924079
	H7289	H	0.661234	0.533154	0.927767
	H7290	H	0.661309	-0.036069	0.981926
	H7291	H	0.645718	-0.036201	0.988352
	H7292	H	0.708565	-0.035634	0.981880
	H7293	H	0.724288	-0.036757	0.985939
	H7294	H	0.708627	0.534208	0.927721
	H7295	H	0.724226	0.533223	0.921097
	Al7296	Al	0.811970	-0.501227	0.065899
	Al7297	Al	0.811974	-0.251311	0.066128
	Al7298	Al	0.748399	-0.251902	0.010659
	Al7299	Al	0.748367	-0.502019	0.010662
	O7300	O	0.821419	-0.459223	0.085555
	O7301	O	0.811935	-0.376202	0.050967
	O7302	O	0.812003	-0.126170	0.081194
	O7303	O	0.865931	-0.460417	0.102321
	O7304	O	0.802611	-0.461460	0.085440
	O7305	O	0.758625	-0.460049	0.108578
	O7306	O	0.802796	-0.292866	0.086109
	O7307	O	0.802407	-0.211705	0.046878
	O7308	O	0.757854	-0.209856	0.030198
	O7309	O	0.821517	-0.291056	0.085353
	O7310	O	0.821129	-0.209195	0.046051
	O7311	O	0.865122	-0.210688	0.022921
	O7312	O	0.758764	-0.291632	0.108977
	O7313	O	0.802557	-0.043135	0.046365
	O7314	O	0.757999	-0.041422	0.029722
	O7315	O	0.865276	-0.042324	0.023303
	O7316	O	0.821305	-0.041083	0.046561
	O7317	O	0.866050	-0.292069	0.101799
	O7318	O	0.749373	-0.126874	0.113458
	O7319	O	0.874568	-0.375395	0.018434
	C7320	C	0.848261	-0.285977	0.094489
	C7321	C	0.852727	-0.376042	0.096103
	C7322	C	0.848059	-0.465608	0.095439
	C7323	C	0.839182	-0.465343	0.093211
	C7324	C	0.834722	-0.375267	0.091551
	C7325	C	0.839372	-0.285583	0.092302
	C7326	C	0.825207	-0.375170	0.087278
	C7327	C	0.862247	-0.376298	0.100316
	C7328	C	0.799016	-0.377026	0.088119
	C7329	C	0.789611	-0.376574	0.093596
	C7330	C	0.785190	-0.286555	0.095862
	C7331	C	0.776368	-0.286245	0.099389
	C7332	C	0.771774	-0.376147	0.100907
	C7333	C	0.776191	-0.466191	0.098692
	C7334	C	0.785005	-0.466383	0.095153
	C7335	C	0.762378	-0.375770	0.106448
	C7336	C	0.798753	-0.127356	0.044832
	C7337	C	0.789226	-0.126809	0.040632
	C7338	C	0.784778	-0.036464	0.038980
	C7339	C	0.775888	-0.036090	0.036654
	C7340	C	0.771212	-0.125881	0.035930
	C7341	C	0.775668	-0.216084	0.037526
	C7342	C	0.784558	-0.216562	0.039843
	C7343	C	0.761674	-0.125713	0.031664
	C7344	C	0.824897	-0.125277	0.044061
	C7345	C	0.834295	-0.125262	0.038436
	C7346	C	0.838745	-0.215144	0.036240
	C7347	C	0.847539	-0.215699	0.032607
	C7348	C	0.852134	-0.126110	0.031116
	C7349	C	0.847690	-0.036111	0.033259
	C7350	C	0.838886	-0.035529	0.036845
	C7351	C	0.861518	-0.126270	0.025436
	H7352	H	0.850840	-0.286016	0.030950
	H7353	H	0.835254	-0.284948	0.037432
	H7354	H	0.851789	-0.216178	0.094975
	H7355	H	0.836018	-0.215648	0.091057
	H7356	H	0.811853	-0.375837	0.034839
	H7357	H	0.812054	-0.126500	0.097338
	H7358	H	0.749222	-0.126562	0.097388
	H7359	H	0.874706	-0.375621	0.034572
	H7360	H	0.787912	-0.286792	0.041112
	H7361	H	0.772157	-0.286012	0.037114
	H7362	H	0.773051	-0.216108	0.100985
	H7363	H	0.788650	-0.216642	0.094829
	H7364	H	0.772533	0.034022	0.035530
	H7365	H	0.788272	0.033341	0.039564
	H7366	H	0.788317	-0.536800	0.093609
	H7367	H	0.772726	-0.536125	0.099766
	H7368	H	0.835682	-0.535222	0.092706
	H7369	H	0.851391	-0.535962	0.096725
	H7370	H	0.835575	0.034631	0.038505
	H7371	H	0.851174	0.033611	0.032136
	Al7372	Al	0.811962	-0.001425	0.066121
	Al7373	Al	0.811966	0.248621	0.065956
	Al7374	Al	0.748421	0.248243	0.010692
	Al7375	Al	0.748412	-0.001835	0.010752
	O7376	O	0.821418	0.040495	0.085638
	O7377	O	0.811898	0.123660	0.050924
	O7378	O	0.812067	0.373654	0.081013
	O7379	O	0.865936	0.039929	0.102289
	O7380	O	0.802663	0.038851	0.085780
	O7381	O	0.758667	0.039416	0.108432
	O7382	O	0.802784	0.206906	0.085952
	O7383	O	0.802399	0.288268	0.046744
	O7384	O	0.757847	0.289426	0.030379
	O7385	O	0.821522	0.208595	0.085116
	O7386	O	0.821114	0.290607	0.045876
	O7387	O	0.865152	0.289710	0.023090
	O7388	O	0.758749	0.207795	0.108897
	O7389	O	0.802528	0.456569	0.046389
	O7390	O	0.757956	0.457851	0.029919
	O7391	O	0.865282	0.458075	0.023461
	O7392	O	0.821283	0.458763	0.046540
	O7393	O	0.866043	0.208280	0.101984
	O7394	O	0.749364	0.373057	0.113611
	O7395	O	0.874529	0.124723	0.018480
	C7396	C	0.848270	0.214078	0.094513
	C7397	C	0.852749	0.124201	0.096113
	C7398	C	0.848113	0.034302	0.095324
	C7399	C	0.839217	0.034395	0.093046
	C7400	C	0.834738	0.124408	0.091371
	C7401	C	0.839373	0.214180	0.092237
	C7402	C	0.825210	0.124627	0.087213
	C7403	C	0.862246	0.124114	0.100308
	C7404	C	0.799045	0.122926	0.088102
	C7405	C	0.789648	0.122857	0.093778
	C7406	C	0.785218	0.212920	0.095994
	C7407	C	0.776422	0.213436	0.099478
	C7408	C	0.771802	0.123817	0.100862
	C7409	C	0.776225	0.033848	0.098704
	C7410	C	0.785027	0.033220	0.095208
	C7411	C	0.762386	0.123816	0.106525
	C7412	C	0.798707	0.372334	0.044826
	C7413	C	0.789182	0.372537	0.040639
	C7414	C	0.784722	0.462666	0.038924
	C7415	C	0.775833	0.463338	0.036727
	C7416	C	0.771170	0.373681	0.036059
	C7417	C	0.775643	0.283467	0.037665
	C7418	C	0.784531	0.282811	0.039875
	C7419	C	0.761647	0.373615	0.031874
	C7420	C	0.824883	0.374560	0.043912
	C7421	C	0.834281	0.374175	0.038317
	C7422	C	0.838714	0.284122	0.036038
	C7423	C	0.847523	0.284005	0.032527
	C7424	C	0.852136	0.373812	0.031120
	C7425	C	0.847695	0.463752	0.033239
	C7426	C	0.838881	0.463932	0.036733
	C7427	C	0.861540	0.373778	0.025530
	H7428	H	0.850880	0.214010	0.030935
	H7429	H	0.835261	0.213943	0.037246
	H7430	H	0.851744	0.284004	0.095016
	H7431	H	0.836010	0.284195	0.091035
	H7432	H	0.811767	0.123267	0.034786
	H7433	H	0.812185	0.373281	0.097034
	H7434	H	0.749229	0.373163	0.097556
	H7435	H	0.874507	0.124383	0.034636
	H7436	H	0.787873	0.212436	0.041059
	H7437	H	0.772130	0.213631	0.037110
	H7438	H	0.773072	0.283586	0.101130
	H7439	H	0.788679	0.282756	0.094874
	H7440	H	0.772481	0.533726	0.035485
	H7441	H	0.788231	0.532435	0.039418
	H7442	H	0.788347	-0.036715	0.093463
	H7443	H	0.772742	-0.035993	0.099727
	H7444	H	0.835721	-0.035706	0.092618
	H7445	H	0.851485	-0.035847	0.096497
	H7446	H	0.835561	0.534006	0.038425
	H7447	H	0.851159	0.533595	0.032274
	Al7448	Al	0.813006	-0.501081	0.184249
	Al7449	Al	0.813020	-0.251215	0.184152
	Al7450	Al	0.749461	-0.251657	0.128632
	Al7451	Al	0.749489	-0.501684	0.128656
	O7452	O	0.822495	-0.459691	0.203772
	O7453	O	0.812974	-0.376291	0.169103
	O7454	O	0.813126	-0.126286	0.199267
	O7455	O	0.866963	-0.461184	0.220409
	O7456	O	0.803740	-0.460927	0.203898
	O7457	O	0.759732	-0.459605	0.226543
	O7458	O	0.803874	-0.292641	0.204168
	O7459	O	0.803431	-0.211249	0.164914
	O7460	O	0.758927	-0.209884	0.148113
	O7461	O	0.822580	-0.291408	0.203309
	O7462	O	0.822233	-0.210210	0.164272
	O7463	O	0.866197	-0.210272	0.141128
	O7464	O	0.759888	-0.291296	0.226931
	O7465	O	0.803538	-0.042787	0.164655
	O7466	O	0.759057	-0.041623	0.147760
	O7467	O	0.866318	-0.041947	0.141472
	O7468	O	0.822300	-0.041939	0.164410
	O7469	O	0.867143	-0.292845	0.219778
	O7470	O	0.750471	-0.126592	0.231508
	O7471	O	0.875594	-0.374968	0.136576
	C7472	C	0.849343	-0.286275	0.212441
	C7473	C	0.853789	-0.376361	0.214125
	C7474	C	0.849135	-0.466022	0.213370
	C7475	C	0.840246	-0.465830	0.211094
	C7476	C	0.835800	-0.375762	0.209492
	C7477	C	0.840461	-0.286114	0.210187
	C7478	C	0.826282	-0.375376	0.205367
	C7479	C	0.863316	-0.376834	0.218335
	C7480	C	0.800119	-0.376659	0.206323
	C7481	C	0.790745	-0.376402	0.211945
	C7482	C	0.786323	-0.286212	0.214166
	C7483	C	0.777521	-0.285827	0.217584
	C7484	C	0.772900	-0.375613	0.219022
	C7485	C	0.777326	-0.465814	0.216781
	C7486	C	0.786134	-0.466157	0.213347
	C7487	C	0.763504	-0.375429	0.224548
	C7488	C	0.799745	-0.127056	0.163006
	C7489	C	0.790238	-0.126821	0.158806
	C7490	C	0.785774	-0.036663	0.157150
	C7491	C	0.776885	-0.036105	0.154873
	C7492	C	0.772252	-0.126149	0.154070
	C7493	C	0.776722	-0.216241	0.155751
	C7494	C	0.785607	-0.216789	0.158057
	C7495	C	0.762719	-0.125770	0.149715
	C7496	C	0.825967	-0.125985	0.162186
	C7497	C	0.835343	-0.125803	0.156549
	C7498	C	0.839787	-0.215568	0.154167
	C7499	C	0.848586	-0.215660	0.150538
	C7500	C	0.853205	-0.126135	0.149238
	C7501	C	0.848770	-0.036254	0.151600
	C7502	C	0.839968	-0.036104	0.155228
	C7503	C	0.862575	-0.126137	0.143603
	H7504	H	0.851908	-0.285495	0.148634
	H7505	H	0.836331	-0.285772	0.155078
	H7506	H	0.852851	-0.216521	0.212952
	H7507	H	0.837108	-0.215977	0.208946
	H7508	H	0.812923	-0.375929	0.153052
	H7509	H	0.813154	-0.125705	0.215370
	H7510	H	0.750413	-0.126693	0.215489
	H7511	H	0.875618	-0.374492	0.152666
	H7512	H	0.788963	-0.287109	0.159313
	H7513	H	0.773222	-0.286118	0.155226
	H7514	H	0.774172	-0.215856	0.219218
	H7515	H	0.789788	-0.216308	0.213117
	H7516	H	0.773515	0.033894	0.153661
	H7517	H	0.789264	0.033291	0.157710
	H7518	H	0.789476	-0.536049	0.211665
	H7519	H	0.773855	-0.535989	0.217715
	H7520	H	0.836733	-0.535772	0.210634
	H7521	H	0.852483	-0.536197	0.214602
	H7522	H	0.836603	0.033940	0.157043
	H7523	H	0.852231	0.033598	0.150573
	Al7524	Al	0.813035	-0.001371	0.184171
	Al7525	Al	0.813030	0.248673	0.184134
	Al7526	Al	0.749429	0.248094	0.128557
	Al7527	Al	0.749487	-0.001897	0.128482
	O7528	O	0.822483	0.039833	0.203734
	O7529	O	0.812898	0.123597	0.169161
	O7530	O	0.813156	0.373840	0.199282
	O7531	O	0.866969	0.039431	0.220357
	O7532	O	0.803740	0.038666	0.203773
	O7533	O	0.759717	0.040132	0.226596
	O7534	O	0.803866	0.207094	0.204159
	O7535	O	0.803463	0.288924	0.164872
	O7536	O	0.758897	0.290120	0.148241
	O7537	O	0.822570	0.208354	0.203367
	O7538	O	0.822200	0.290197	0.164235
	O7539	O	0.866213	0.289773	0.141136
	O7540	O	0.759922	0.208447	0.227151
	O7541	O	0.803566	0.457066	0.164569
	O7542	O	0.759054	0.458393	0.147951
	O7543	O	0.866342	0.457970	0.141502
	O7544	O	0.822315	0.458343	0.164493
	O7545	O	0.867065	0.208040	0.220054
	O7546	O	0.750488	0.373608	0.231506
	O7547	O	0.875568	0.124756	0.136516
	C7548	C	0.849283	0.213543	0.212649
	C7549	C	0.853773	0.123599	0.214160
	C7550	C	0.849122	0.033921	0.213486
	C7551	C	0.840264	0.033864	0.211221
	C7552	C	0.835777	0.123885	0.209593
	C7553	C	0.840418	0.213645	0.210366
	C7554	C	0.826263	0.124233	0.205350
	C7555	C	0.863272	0.123680	0.218475
	C7556	C	0.800127	0.122963	0.206223
	C7557	C	0.790732	0.123136	0.211705
	C7558	C	0.786322	0.213373	0.214127
	C7559	C	0.777518	0.213674	0.217689
	C7560	C	0.772892	0.123812	0.219052
	C7561	C	0.777307	0.033684	0.216620
	C7562	C	0.786108	0.033321	0.213059
	C7563	C	0.763490	0.124057	0.224571
	C7564	C	0.799777	0.372904	0.162938
	C7565	C	0.790255	0.373145	0.158613
	C7566	C	0.785790	0.463265	0.157041
	C7567	C	0.776888	0.463416	0.154767
	C7568	C	0.772249	0.373693	0.153933
	C7569	C	0.776709	0.283581	0.155565
	C7570	C	0.785614	0.283354	0.157818
	C7571	C	0.762713	0.373964	0.149803
	C7572	C	0.825933	0.374402	0.162080
	C7573	C	0.835340	0.374479	0.156402
	C7574	C	0.839788	0.284572	0.154087
	C7575	C	0.848599	0.284311	0.150527
	C7576	C	0.853200	0.373936	0.149194
	C7577	C	0.848760	0.463901	0.151527
	C7578	C	0.839947	0.464245	0.155064
	C7579	C	0.862592	0.373893	0.143629
	H7580	H	0.851905	0.214139	0.148729
	H7581	H	0.836309	0.214795	0.155028
	H7582	H	0.852792	0.283289	0.213028
	H7583	H	0.837035	0.283393	0.209002
	H7584	H	0.812616	0.123866	0.153112
	H7585	H	0.813305	0.373903	0.215384
	H7586	H	0.750332	0.373365	0.215417
	H7587	H	0.875669	0.124776	0.152601
	H7588	H	0.788988	0.213095	0.158925
	H7589	H	0.773241	0.213694	0.155028
	H7590	H	0.774213	0.283713	0.219500
	H7591	H	0.789825	0.283134	0.213215
	H7592	H	0.773542	0.533649	0.153582
	H7593	H	0.789274	0.533341	0.157624
	H7594	H	0.789421	-0.036608	0.211338
	H7595	H	0.773810	-0.036051	0.217623
	H7596	H	0.836752	-0.035692	0.210567
	H7597	H	0.852521	-0.036142	0.214560
	H7598	H	0.836627	0.534431	0.156775
	H7599	H	0.852216	0.533903	0.150585
	Al7600	Al	0.814073	-0.501812	0.302011
	Al7601	Al	0.814101	-0.251598	0.302041
	Al7602	Al	0.750560	-0.251512	0.246582
	Al7603	Al	0.750559	-0.501187	0.246590
	O7604	O	0.823475	-0.459352	0.321777
	O7605	O	0.813967	-0.376475	0.287038
	O7606	O	0.814197	-0.126235	0.317168
	O7607	O	0.868020	-0.461885	0.338539
	O7608	O	0.804717	-0.461903	0.321419
	O7609	O	0.760788	-0.459457	0.344815
	O7610	O	0.804944	-0.293757	0.322108
	O7611	O	0.804483	-0.211956	0.283058
	O7612	O	0.759997	-0.209572	0.266317
	O7613	O	0.823706	-0.290988	0.321242
	O7614	O	0.823237	-0.209390	0.282104
	O7615	O	0.867221	-0.210624	0.258968
	O7616	O	0.760969	-0.291283	0.345444
	O7617	O	0.804725	-0.043640	0.282250
	O7618	O	0.760147	-0.041403	0.265853
	O7619	O	0.867393	-0.042324	0.259542
	O7620	O	0.823411	-0.041109	0.282700
	O7621	O	0.868216	-0.293486	0.337962
	O7622	O	0.751448	-0.126710	0.349703
	O7623	O	0.876680	-0.375290	0.254549
	C7624	C	0.850412	-0.286923	0.330649
	C7625	C	0.854862	-0.377173	0.332210
	C7626	C	0.850205	-0.466586	0.331620
	C7627	C	0.841315	-0.465913	0.329358
	C7628	C	0.836865	-0.375753	0.327591
	C7629	C	0.841519	-0.286189	0.328374
	C7630	C	0.827346	-0.375557	0.323366
	C7631	C	0.864374	-0.377473	0.336524
	C7632	C	0.801134	-0.377627	0.323980
	C7633	C	0.791761	-0.377103	0.329584
	C7634	C	0.787368	-0.287042	0.331992
	C7635	C	0.778572	-0.286452	0.335676
	C7636	C	0.773920	-0.375881	0.337091
	C7637	C	0.778307	-0.466076	0.334639
	C7638	C	0.787104	-0.466531	0.330980
	C7639	C	0.764561	-0.375489	0.342827
	C7640	C	0.800863	-0.127583	0.280876
	C7641	C	0.791342	-0.127017	0.276669
	C7642	C	0.786909	-0.036693	0.274979
	C7643	C	0.778017	-0.036098	0.272751
	C7644	C	0.773345	-0.125809	0.272030
	C7645	C	0.777774	-0.215999	0.273676
	C7646	C	0.786654	-0.216548	0.275936
	C7647	C	0.763820	-0.125614	0.267890
	C7648	C	0.826998	-0.125354	0.280059
	C7649	C	0.836388	-0.125514	0.274574
	C7650	C	0.840802	-0.215543	0.272381
	C7651	C	0.849616	-0.216005	0.268815
	C7652	C	0.854222	-0.126318	0.267246
	C7653	C	0.849799	-0.036381	0.269488
	C7654	C	0.840983	-0.035806	0.273064
	C7655	C	0.863629	-0.126352	0.261654
	H7656	H	0.852925	-0.286387	0.267305
	H7657	H	0.837332	-0.285359	0.273491
	H7658	H	0.853926	-0.217110	0.331078
	H7659	H	0.838178	-0.216027	0.327166
	H7660	H	0.813854	-0.377184	0.270990
	H7661	H	0.814220	-0.125657	0.333367
	H7662	H	0.751236	-0.126156	0.333546
	H7663	H	0.876784	-0.374912	0.270634
	H7664	H	0.790000	-0.287006	0.277076
	H7665	H	0.774253	-0.285881	0.273194
	H7666	H	0.775274	-0.216402	0.337358
	H7667	H	0.790843	-0.217169	0.330916
	H7668	H	0.774661	0.033902	0.271489
	H7669	H	0.790429	0.033141	0.275390
	H7670	H	0.790403	-0.536611	0.329074
	H7671	H	0.774820	-0.535662	0.335504
	H7672	H	0.837816	-0.535802	0.328891
	H7673	H	0.853542	-0.536784	0.332863
	H7674	H	0.837682	0.034568	0.274735
	H7675	H	0.853249	0.033459	0.268497
	Al7676	Al	0.814105	-0.001297	0.302004
	Al7677	Al	0.814106	0.248468	0.302019
	Al7678	Al	0.750569	0.248217	0.246580
	Al7679	Al	0.750542	-0.001969	0.246688
	O7680	O	0.823520	0.041394	0.321786
	O7681	O	0.813973	0.123410	0.286958
	O7682	O	0.814183	0.373470	0.317077
	O7683	O	0.868050	0.038504	0.338694
	O7684	O	0.804740	0.037986	0.321365
	O7685	O	0.760763	0.040692	0.344714
	O7686	O	0.804947	0.206185	0.322250
	O7687	O	0.804461	0.288022	0.282911
	O7688	O	0.759959	0.290579	0.266285
	O7689	O	0.823743	0.209453	0.321109
	O7690	O	0.823237	0.290659	0.281839
	O7691	O	0.867284	0.289714	0.259123
	O7692	O	0.760943	0.209061	0.345226
	O7693	O	0.804644	0.456487	0.282407
	O7694	O	0.760110	0.458800	0.265869
	O7695	O	0.867383	0.457947	0.259543
	O7696	O	0.823423	0.458943	0.282650
	O7697	O	0.868220	0.206835	0.338177
	O7698	O	0.751521	0.373847	0.349649
	O7699	O	0.876712	0.124541	0.254566
	C7700	C	0.850444	0.213462	0.330606
	C7701	C	0.854885	0.123255	0.332223
	C7702	C	0.850221	0.033661	0.331460
	C7703	C	0.841335	0.034220	0.329126
	C7704	C	0.836893	0.124504	0.327526
	C7705	C	0.841560	0.214087	0.328329
	C7706	C	0.827373	0.125304	0.323217
	C7707	C	0.864388	0.122785	0.336578
	C7708	C	0.801169	0.122340	0.324214
	C7709	C	0.791788	0.122890	0.329813
	C7710	C	0.787394	0.213147	0.332298
	C7711	C	0.778608	0.213732	0.335885
	C7712	C	0.773950	0.124253	0.337244
	C7713	C	0.778350	0.034012	0.334843
	C7714	C	0.787135	0.033445	0.331254
	C7715	C	0.764552	0.124687	0.342752
	C7716	C	0.800803	0.372299	0.281001
	C7717	C	0.791286	0.372423	0.276652
	C7718	C	0.786851	0.462630	0.274949
	C7719	C	0.777959	0.463622	0.272734
	C7720	C	0.773271	0.374164	0.272162
	C7721	C	0.777695	0.283964	0.273911
	C7722	C	0.786587	0.282919	0.276111
	C7723	C	0.763785	0.374570	0.267863
	C7724	C	0.827017	0.374756	0.280033
	C7725	C	0.836403	0.374679	0.274392
	C7726	C	0.840832	0.284675	0.272155
	C7727	C	0.849636	0.284457	0.268713
	C7728	C	0.854254	0.374051	0.267278
	C7729	C	0.849826	0.464152	0.269405
	C7730	C	0.841017	0.464336	0.272926
	C7731	C	0.863648	0.373725	0.261625
	H7732	H	0.852947	0.214536	0.266956
	H7733	H	0.837369	0.214758	0.273086
	H7734	H	0.853965	0.282998	0.331152
	H7735	H	0.838241	0.284434	0.327109
	H7736	H	0.813763	0.123095	0.270928
	H7737	H	0.814290	0.373903	0.333271
	H7738	H	0.751510	0.374390	0.333478
	H7739	H	0.877090	0.124668	0.270545
	H7740	H	0.789898	0.212621	0.277343
	H7741	H	0.774163	0.214276	0.273451
	H7742	H	0.775284	0.283754	0.337586
	H7743	H	0.790901	0.282766	0.331261
	H7744	H	0.774649	0.533949	0.271326
	H7745	H	0.790401	0.532418	0.275242
	H7746	H	0.790430	-0.036643	0.329421
	H7747	H	0.774827	-0.035552	0.335671
	H7748	H	0.837816	-0.035371	0.328571
	H7749	H	0.853544	-0.036695	0.332647
	H7750	H	0.837691	0.534390	0.274583
	H7751	H	0.853271	0.534176	0.268239
	Al7752	Al	0.815132	-0.501474	0.420433
	Al7753	Al	0.815160	-0.251323	0.420445
	Al7754	Al	0.751591	-0.251415	0.364845
	Al7755	Al	0.751564	-0.501402	0.364752
	O7756	O	0.824522	-0.459535	0.440204
	O7757	O	0.814995	-0.376347	0.405388
	O7758	O	0.815266	-0.126607	0.435545
	O7759	O	0.869076	-0.462667	0.456498
	O7760	O	0.805759	-0.461595	0.439762
	O7761	O	0.761786	-0.459946	0.462721
	O7762	O	0.805962	-0.293475	0.440367
	O7763	O	0.805540	-0.212032	0.401345
	O7764	O	0.760991	-0.209450	0.384577
	O7765	O	0.824750	-0.291303	0.439570
	O7766	O	0.824314	-0.209849	0.400451
	O7767	O	0.868261	-0.211767	0.377163
	O7768	O	0.761962	-0.291632	0.463390
	O7769	O	0.805736	-0.043500	0.400690
	O7770	O	0.761221	-0.041343	0.383726
	O7771	O	0.868453	-0.043477	0.377800
	O7772	O	0.824490	-0.041843	0.401104
	O7773	O	0.869283	-0.294399	0.455744
	O7774	O	0.752450	-0.126815	0.467682
	O7775	O	0.877714	-0.376371	0.372831
	C7776	C	0.851471	-0.287626	0.448695
	C7777	C	0.855917	-0.377808	0.450313
	C7778	C	0.851232	-0.467002	0.449782
	C7779	C	0.842342	-0.466337	0.447614
	C7780	C	0.837886	-0.376238	0.445968
	C7781	C	0.842581	-0.286860	0.446529
	C7782	C	0.828370	-0.375682	0.441719
	C7783	C	0.865449	-0.378238	0.454386
	C7784	C	0.802163	-0.377291	0.442299
	C7785	C	0.792773	-0.376918	0.447840
	C7786	C	0.788365	-0.286973	0.450209
	C7787	C	0.779555	-0.286538	0.453766
	C7788	C	0.774931	-0.376162	0.455124
	C7789	C	0.779323	-0.466110	0.452590
	C7790	C	0.788131	-0.466384	0.449055
	C7791	C	0.765546	-0.375850	0.460723
	C7792	C	0.801907	-0.127619	0.399125
	C7793	C	0.792394	-0.127292	0.394895
	C7794	C	0.787940	-0.037033	0.393052
	C7795	C	0.779050	-0.036641	0.390811
	C7796	C	0.774383	-0.126258	0.390124
	C7797	C	0.778826	-0.216479	0.392058
	C7798	C	0.787724	-0.217016	0.394324
	C7799	C	0.764857	-0.125686	0.385927
	C7800	C	0.828085	-0.126019	0.398446
	C7801	C	0.837487	-0.126249	0.392856
	C7802	C	0.841899	-0.216289	0.390404
	C7803	C	0.850685	-0.216685	0.386756
	C7804	C	0.855303	-0.127161	0.385370
	C7805	C	0.850905	-0.037039	0.387726
	C7806	C	0.842115	-0.036726	0.391413
	C7807	C	0.864687	-0.127484	0.379865
	H7808	H	0.854000	-0.286959	0.384865
	H7809	H	0.838422	-0.286335	0.391299
	H7810	H	0.854985	-0.218081	0.449068
	H7811	H	0.839241	-0.216667	0.445268
	H7812	H	0.814658	-0.376476	0.389296
	H7813	H	0.815442	-0.126373	0.451582
	H7814	H	0.752155	-0.126611	0.451540
	H7815	H	0.877870	-0.376296	0.388792
	H7816	H	0.791073	-0.287438	0.395686
	H7817	H	0.775317	-0.286177	0.391745
	H7818	H	0.776243	-0.216334	0.455690
	H7819	H	0.791845	-0.217341	0.449319
	H7820	H	0.775707	0.033639	0.389448
	H7821	H	0.791450	0.032769	0.393366
	H7822	H	0.791416	-0.536721	0.447300
	H7823	H	0.775863	-0.536013	0.453538
	H7824	H	0.838828	-0.536044	0.447180
	H7825	H	0.854578	-0.537221	0.451039
	H7826	H	0.838787	0.033267	0.393112
	H7827	H	0.854380	0.032772	0.386643
	Al7828	Al	0.815137	-0.001733	0.420513
	Al7829	Al	0.815140	0.248426	0.420478
	Al7830	Al	0.751603	0.248779	0.364798
	Al7831	Al	0.751599	-0.001372	0.364776
	O7832	O	0.824534	0.040278	0.440339
	O7833	O	0.815094	0.123186	0.405388
	O7834	O	0.815195	0.373403	0.435508
	O7835	O	0.869067	0.037128	0.456367
	O7836	O	0.805786	0.038048	0.439937
	O7837	O	0.761727	0.039939	0.462623
	O7838	O	0.805944	0.206380	0.440343
	O7839	O	0.805521	0.287869	0.401468
	O7840	O	0.761020	0.290626	0.384554
	O7841	O	0.824735	0.208624	0.439595
	O7842	O	0.824346	0.290445	0.400609
	O7843	O	0.868314	0.288141	0.377356
	O7844	O	0.761949	0.208060	0.463178
	O7845	O	0.805721	0.456216	0.400625
	O7846	O	0.761201	0.458762	0.383893
	O7847	O	0.868468	0.456424	0.377930
	O7848	O	0.824474	0.458733	0.400987
	O7849	O	0.869248	0.205548	0.455768
	O7850	O	0.752537	0.373141	0.467680
	O7851	O	0.877754	0.123456	0.372879
	C7852	C	0.851460	0.211916	0.448672
	C7853	C	0.855901	0.121876	0.450354
	C7854	C	0.851231	0.032404	0.449744
	C7855	C	0.842354	0.033149	0.447551
	C7856	C	0.837899	0.123330	0.445982
	C7857	C	0.842582	0.212598	0.446501
	C7858	C	0.828384	0.124191	0.441730
	C7859	C	0.865420	0.121481	0.454365
	C7860	C	0.802184	0.122244	0.442421
	C7861	C	0.792797	0.122380	0.447889
	C7862	C	0.788382	0.212389	0.450342
	C7863	C	0.779578	0.212925	0.453800
	C7864	C	0.774919	0.123405	0.455007
	C7865	C	0.779349	0.033513	0.452541
	C7866	C	0.788157	0.032768	0.449112
	C7867	C	0.765526	0.123865	0.460620
	C7868	C	0.801887	0.372284	0.399240
	C7869	C	0.792364	0.372773	0.394923
	C7870	C	0.787917	0.462784	0.393079
	C7871	C	0.779049	0.463357	0.390750
	C7872	C	0.774380	0.373859	0.390138
	C7873	C	0.778828	0.283676	0.391962
	C7874	C	0.787702	0.283276	0.394295
	C7875	C	0.764859	0.374469	0.385948
	C7876	C	0.828101	0.374567	0.398490
	C7877	C	0.837461	0.374088	0.392776
	C7878	C	0.841860	0.283999	0.390450
	C7879	C	0.850660	0.283262	0.386795
	C7880	C	0.855306	0.372706	0.385459
	C7881	C	0.850906	0.462820	0.387784
	C7882	C	0.842108	0.463527	0.391431
	C7883	C	0.864698	0.372319	0.379917
	H7884	H	0.853943	0.212997	0.384960
	H7885	H	0.838351	0.214354	0.391477
	H7886	H	0.855001	0.281569	0.449155
	H7887	H	0.839264	0.282696	0.445238
	H7888	H	0.814928	0.122870	0.389338
	H7889	H	0.815165	0.373374	0.451640
	H7890	H	0.752358	0.373627	0.451607
	H7891	H	0.877851	0.123219	0.389042
	H7892	H	0.791057	0.213127	0.395717
	H7893	H	0.775306	0.214089	0.391579
	H7894	H	0.776265	0.283295	0.455481
	H7895	H	0.791870	0.282208	0.449359
	H7896	H	0.775705	0.533523	0.389398
	H7897	H	0.791440	0.532578	0.393498
	H7898	H	0.791465	-0.037336	0.447128
	H7899	H	0.775831	-0.036370	0.453249
	H7900	H	0.838818	-0.036428	0.447121
	H7901	H	0.854583	-0.037732	0.451021
	H7902	H	0.838817	0.533821	0.393211
	H7903	H	0.854395	0.532443	0.386753
	Al7904	Al	0.815984	-0.502455	0.538576
	Al7905	Al	0.815951	-0.253204	0.538587
	Al7906	Al	0.752607	-0.251819	0.482908
	Al7907	Al	0.752615	-0.501913	0.482715
	O7908	O	0.824682	-0.460925	0.560591
	O7909	O	0.816059	-0.378096	0.523655
	O7910	O	0.815775	-0.127756	0.553484
	O7911	O	0.862764	-0.459084	0.626769
	O7912	O	0.806449	-0.463155	0.557452
	O7913	O	0.762794	-0.460705	0.582289
	O7914	O	0.806676	-0.294834	0.558150
	O7915	O	0.806568	-0.213487	0.518500
	O7916	O	0.762010	-0.209649	0.502595
	O7917	O	0.824808	-0.292742	0.560228
	O7918	O	0.825326	-0.210865	0.519779
	O7919	O	0.868998	-0.212295	0.495296
	O7920	O	0.763028	-0.292467	0.583077
	O7921	O	0.806787	-0.044983	0.517931
	O7922	O	0.762191	-0.041466	0.501973
	O7923	O	0.869139	-0.044119	0.495822
	O7924	O	0.825475	-0.042554	0.520300
	O7925	O	0.862847	-0.291008	0.626504
	O7926	O	0.753543	-0.127957	0.586186
	O7927	O	0.878154	-0.377312	0.491453
	C7928	C	0.847586	-0.287092	0.599965
	C7929	C	0.851428	-0.375706	0.606881
	C7930	C	0.847458	-0.464686	0.600468
	C7931	C	0.839884	-0.464855	0.587313
	C7932	C	0.836065	-0.376237	0.580385
	C7933	C	0.840017	-0.287113	0.586858
	C7934	C	0.827941	-0.376712	0.565962
	C7935	C	0.859590	-0.375344	0.621184
	C7936	C	0.802941	-0.378924	0.560342
	C7937	C	0.793656	-0.378375	0.566840
	C7938	C	0.789316	-0.288515	0.569685
	C7939	C	0.780576	-0.288208	0.573903
	C7940	C	0.775960	-0.377465	0.575256
	C7941	C	0.780316	-0.467327	0.572809
	C7942	C	0.789065	-0.467858	0.568603
	C7943	C	0.766602	-0.376780	0.580646
	C7944	C	0.802929	-0.129019	0.516544
	C7945	C	0.793381	-0.128021	0.512718
	C7946	C	0.788970	-0.037787	0.510892
	C7947	C	0.780086	-0.036875	0.508771
	C7948	C	0.775376	-0.126181	0.508313
	C7949	C	0.779784	-0.216426	0.510093
	C7950	C	0.788673	-0.217280	0.512202
	C7951	C	0.765837	-0.125679	0.504091
	C7952	C	0.829108	-0.126900	0.518017
	C7953	C	0.838447	-0.126992	0.512717
	C7954	C	0.842802	-0.216877	0.510107
	C7955	C	0.851560	-0.217271	0.506006
	C7956	C	0.856140	-0.127790	0.504409
	C7957	C	0.851784	-0.037936	0.507158
	C7958	C	0.843040	-0.037673	0.511291
	C7959	C	0.865444	-0.128330	0.498118
	H7960	H	0.854870	-0.286756	0.503856
	H7961	H	0.839317	-0.286366	0.511295
	H7962	H	0.850585	-0.218010	0.605004
	H7963	H	0.837174	-0.218077	0.581601
	H7964	H	0.816092	-0.378181	0.507500
	H7965	H	0.815483	-0.128135	0.569533
	H7966	H	0.753612	-0.127576	0.570126
	H7967	H	0.877662	-0.377309	0.507354
	H7968	H	0.791977	-0.287677	0.513453
	H7969	H	0.776240	-0.286044	0.509731
	H7970	H	0.777309	-0.218446	0.576126
	H7971	H	0.792781	-0.218981	0.568369
	H7972	H	0.776769	0.033214	0.507414
	H7973	H	0.792518	0.031689	0.511129
	H7974	H	0.792340	-0.537655	0.566441
	H7975	H	0.776825	-0.536528	0.574084
	H7976	H	0.836878	-0.533805	0.582327
	H7977	H	0.850308	-0.533573	0.605836
	H7978	H	0.839745	0.031804	0.513397
	H7979	H	0.855228	0.031473	0.505914
	Al7980	Al	0.815969	-0.002498	0.538540
	Al7981	Al	0.815934	0.246774	0.538638
	Al7982	Al	0.752623	0.248198	0.482728
	Al7983	Al	0.752610	-0.001891	0.482806
	O7984	O	0.824667	0.039065	0.560638
	O7985	O	0.816024	0.122076	0.523588
	O7986	O	0.815809	0.372291	0.553633
	O7987	O	0.862732	0.040766	0.626841
	O7988	O	0.806464	0.036822	0.557507
	O7989	O	0.762858	0.038903	0.582479
	O7990	O	0.806685	0.205257	0.558165
	O7991	O	0.806539	0.286880	0.518722
	O7992	O	0.762022	0.289945	0.502386
	O7993	O	0.824810	0.207288	0.560317
	O7994	O	0.825372	0.288551	0.519946
	O7995	O	0.869015	0.287181	0.495330
	O7996	O	0.763024	0.207238	0.583059
	O7997	O	0.806758	0.455274	0.517922
	O7998	O	0.762216	0.458516	0.501979
	O7999	O	0.869157	0.455476	0.495852
	O8000	O	0.825481	0.456936	0.520364
	O8001	O	0.862877	0.208514	0.626382
	O8002	O	0.753505	0.371824	0.586180
	O8003	O	0.878167	0.122647	0.491338
	C8004	C	0.847671	0.213132	0.599758
	C8005	C	0.851447	0.124202	0.606835
	C8006	C	0.847438	0.035094	0.600525
	C8007	C	0.839854	0.034824	0.587459
	C8008	C	0.836054	0.123689	0.580470
	C8009	C	0.840087	0.212756	0.586653
	C8010	C	0.827944	0.123399	0.566065
	C8011	C	0.859590	0.124504	0.621146
	C8012	C	0.802940	0.121255	0.560441
	C8013	C	0.793650	0.121715	0.566790
	C8014	C	0.789318	0.211802	0.569702
	C8015	C	0.780571	0.212269	0.573957
	C8016	C	0.775974	0.122773	0.575351
	C8017	C	0.780311	0.032740	0.572701
	C8018	C	0.789055	0.032339	0.568435
	C8019	C	0.766632	0.122959	0.580725
	C8020	C	0.802899	0.371342	0.516716
	C8021	C	0.793367	0.372047	0.512734
	C8022	C	0.788941	0.462296	0.510954
	C8023	C	0.780054	0.462850	0.508733
	C8024	C	0.775372	0.373380	0.508232
	C8025	C	0.779805	0.283241	0.509993
	C8026	C	0.788692	0.282470	0.512198
	C8027	C	0.765866	0.373941	0.503922
	C8028	C	0.829099	0.372759	0.518077
	C8029	C	0.838456	0.372341	0.512728
	C8030	C	0.842829	0.282382	0.510318
	C8031	C	0.851568	0.281973	0.506166
	C8032	C	0.856137	0.371559	0.504360
	C8033	C	0.851782	0.461546	0.507017
	C8034	C	0.843032	0.461945	0.511211
	C8035	C	0.865441	0.371371	0.498155
	H8036	H	0.854861	0.211990	0.504211
	H8037	H	0.839347	0.212983	0.511605
	H8038	H	0.850712	0.282202	0.604413
	H8039	H	0.837255	0.281359	0.581110
	H8040	H	0.816087	0.122036	0.507609
	H8041	H	0.815587	0.372586	0.569671
	H8042	H	0.753495	0.371473	0.570070
	H8043	H	0.877495	0.122460	0.507363
	H8044	H	0.792034	0.212397	0.513555
	H8045	H	0.776310	0.213588	0.509610
	H8046	H	0.777285	0.282066	0.576169
	H8047	H	0.792814	0.281190	0.568456
	H8048	H	0.776717	0.533200	0.507359
	H8049	H	0.792461	0.531836	0.511281
	H8050	H	0.792317	-0.037673	0.566188
	H8051	H	0.776820	-0.036725	0.573868
	H8052	H	0.836864	-0.034300	0.582648
	H8053	H	0.850329	-0.033827	0.605905
	H8054	H	0.839734	0.531762	0.513235
	H8055	H	0.855263	0.530838	0.505744
	Al8056	Al	0.809077	-0.499927	0.711039
	Al8057	Al	0.809052	-0.249501	0.710958
	Al8058	Al	0.753480	-0.252535	0.601257
	Al8059	Al	0.753445	-0.503259	0.601108
	O8060	O	0.818274	-0.457677	0.731702
	O8061	O	0.809395	-0.374786	0.696038
	O8062	O	0.809010	-0.124608	0.725916
	O8063	O	0.862857	-0.459839	0.747831
	O8064	O	0.799537	-0.459827	0.729203
	O8065	O	0.755869	-0.457459	0.754176
	O8066	O	0.799741	-0.291722	0.729819
	O8067	O	0.800194	-0.209845	0.689509
	O8068	O	0.762148	-0.211037	0.623271
	O8069	O	0.818469	-0.289297	0.730952
	O8070	O	0.818390	-0.207886	0.691360
	O8071	O	0.862055	-0.210112	0.666525
	O8072	O	0.756070	-0.289106	0.754722
	O8073	O	0.800369	-0.041653	0.688881
	O8074	O	0.762314	-0.042957	0.622779
	O8075	O	0.862250	-0.041664	0.667145
	O8076	O	0.818570	-0.039560	0.692182
	O8077	O	0.862977	-0.291688	0.747509
	O8078	O	0.746787	-0.124337	0.758732
	O8079	O	0.871556	-0.374494	0.663206
	C8080	C	0.845209	-0.285633	0.739878
	C8081	C	0.849640	-0.375727	0.741713
	C8082	C	0.844973	-0.465198	0.740980
	C8083	C	0.836077	-0.464360	0.738839
	C8084	C	0.831632	-0.374251	0.737246
	C8085	C	0.836320	-0.284853	0.737680
	C8086	C	0.822116	-0.373672	0.733107
	C8087	C	0.859173	-0.375865	0.745906
	C8088	C	0.795945	-0.375458	0.731472
	C8089	C	0.786576	-0.375288	0.736771
	C8090	C	0.782222	-0.285503	0.739346
	C8091	C	0.773482	-0.284900	0.743652
	C8092	C	0.768877	-0.374157	0.745389
	C8093	C	0.773218	-0.463973	0.742479
	C8094	C	0.781959	-0.464585	0.738141
	C8095	C	0.759589	-0.373417	0.751811
	C8096	C	0.797086	-0.125920	0.683642
	C8097	C	0.788946	-0.126188	0.669310
	C8098	C	0.785174	-0.037222	0.662283
	C8099	C	0.777584	-0.037428	0.649174
	C8100	C	0.773569	-0.126637	0.642951
	C8101	C	0.777316	-0.215629	0.650118
	C8102	C	0.784897	-0.215422	0.663221
	C8103	C	0.765438	-0.126871	0.628559
	C8104	C	0.822115	-0.123767	0.689158
	C8105	C	0.831403	-0.123800	0.682645
	C8106	C	0.835753	-0.213704	0.679896
	C8107	C	0.844504	-0.214169	0.675670
	C8108	C	0.849102	-0.124840	0.674122
	C8109	C	0.844752	-0.034774	0.676599
	C8110	C	0.836001	-0.034318	0.680822
	C8111	C	0.858469	-0.125589	0.668848
	H8112	H	0.847797	-0.283994	0.673654
	H8113	H	0.832266	-0.282922	0.681247
	H8114	H	0.848733	-0.216105	0.740147
	H8115	H	0.832990	-0.214583	0.736295
	H8116	H	0.810053	-0.374819	0.680039
	H8117	H	0.809090	-0.124657	0.741935
	H8118	H	0.747209	-0.124121	0.742719
	H8119	H	0.871612	-0.373770	0.679213
	H8120	H	0.787714	-0.284481	0.668699
	H8121	H	0.774273	-0.284909	0.645420
	H8122	H	0.770219	-0.214848	0.745781
	H8123	H	0.785732	-0.216349	0.738071
	H8124	H	0.774756	0.031613	0.643718
	H8125	H	0.788210	0.032133	0.666983
	H8126	H	0.785227	-0.534174	0.735885
	H8127	H	0.769711	-0.533179	0.743655
	H8128	H	0.832554	-0.533986	0.738392
	H8129	H	0.848313	-0.535100	0.742117
	H8130	H	0.832720	0.035850	0.682925
	H8131	H	0.848228	0.034586	0.675371
	Al8132	Al	0.809068	0.000034	0.710929
	Al8133	Al	0.809078	0.250687	0.710869
	Al8134	Al	0.753453	0.247341	0.601239
	Al8135	Al	0.753454	-0.003114	0.601223
	O8136	O	0.818266	0.042409	0.731566
	O8137	O	0.809382	0.125412	0.695872
	O8138	O	0.808978	0.375425	0.725959
	O8139	O	0.862791	0.039532	0.748074
	O8140	O	0.799516	0.040220	0.728978
	O8141	O	0.755971	0.041893	0.754495
	O8142	O	0.799708	0.208646	0.729576
	O8143	O	0.800231	0.290163	0.689340
	O8144	O	0.762100	0.289092	0.623363
	O8145	O	0.818441	0.210840	0.731023
	O8146	O	0.818422	0.292341	0.691610
	O8147	O	0.862014	0.290376	0.666398
	O8148	O	0.756079	0.210517	0.754706
	O8149	O	0.800420	0.458342	0.688872
	O8150	O	0.762340	0.457209	0.622607
	O8151	O	0.862235	0.458667	0.666958
	O8152	O	0.818628	0.460740	0.692337
	O8153	O	0.862976	0.207667	0.747443
	O8154	O	0.746816	0.375212	0.758640
	O8155	O	0.871573	0.125867	0.663292
	C8156	C	0.845184	0.214214	0.740018
	C8157	C	0.849623	0.124185	0.741723
	C8158	C	0.844921	0.034969	0.741025
	C8159	C	0.836056	0.035803	0.738766
	C8160	C	0.831617	0.125906	0.737147
	C8161	C	0.836322	0.215107	0.737771
	C8162	C	0.822096	0.126365	0.733000
	C8163	C	0.859147	0.123705	0.746003
	C8164	C	0.795937	0.124412	0.731378
	C8165	C	0.786575	0.125211	0.736753
	C8166	C	0.782200	0.215037	0.739073
	C8167	C	0.773470	0.215386	0.743420
	C8168	C	0.768910	0.125943	0.745487
	C8169	C	0.773272	0.036057	0.742920
	C8170	C	0.782008	0.035753	0.738533
	C8171	C	0.759641	0.126243	0.752031
	C8172	C	0.797112	0.374327	0.683568
	C8173	C	0.788954	0.374232	0.669364
	C8174	C	0.785176	0.463144	0.662202
	C8175	C	0.777589	0.462902	0.649139
	C8176	C	0.773563	0.373590	0.642965
	C8177	C	0.777294	0.284801	0.650325
	C8178	C	0.784881	0.285112	0.663378
	C8179	C	0.765411	0.373357	0.628566
	C8180	C	0.822155	0.376548	0.689364
	C8181	C	0.831438	0.376236	0.682973
	C8182	C	0.835761	0.286272	0.680040
	C8183	C	0.844495	0.285800	0.675707
	C8184	C	0.849091	0.375366	0.674194
	C8185	C	0.844749	0.465344	0.676779
	C8186	C	0.836014	0.465894	0.681124
	C8187	C	0.858442	0.374520	0.668742
	H8188	H	0.847796	0.216081	0.673532
	H8189	H	0.832281	0.216750	0.681243
	H8190	H	0.848734	0.283990	0.740503
	H8191	H	0.832977	0.285378	0.736408
	H8192	H	0.809883	0.125530	0.679870
	H8193	H	0.809025	0.375366	0.742099
	H8194	H	0.747149	0.374740	0.742703
	H8195	H	0.871710	0.125751	0.679312
	H8196	H	0.787673	0.216158	0.668981
	H8197	H	0.774207	0.215598	0.645759
	H8198	H	0.770135	0.285167	0.745505
	H8199	H	0.785659	0.284586	0.737702
	H8200	H	0.774773	0.531855	0.643612
	H8201	H	0.788222	0.532260	0.666856
	H8202	H	0.785342	-0.033751	0.736692
	H8203	H	0.769859	-0.033417	0.744601
	H8204	H	0.832538	-0.033614	0.738256
	H8205	H	0.848252	-0.035129	0.742277
	H8206	H	0.832725	0.535628	0.683257
	H8207	H	0.848244	0.534595	0.675499
	Al8208	Al	0.809915	-0.500573	0.829794
	Al8209	Al	0.809903	-0.250714	0.829688
	Al8210	Al	0.746563	-0.249988	0.773693
	Al8211	Al	0.746568	-0.499237	0.773572
	O8212	O	0.819287	-0.458750	0.849733
	O8213	O	0.809784	-0.375834	0.814693
	O8214	O	0.809993	-0.125741	0.844715
	O8215	O	0.863773	-0.460633	0.866506
	O8216	O	0.800574	-0.460533	0.849222
	O8217	O	0.756533	-0.459554	0.871779
	O8218	O	0.800734	-0.292167	0.849700
	O8219	O	0.800337	-0.211168	0.810409
	O8220	O	0.755799	-0.207912	0.794257
	O8221	O	0.819452	-0.290029	0.848939
	O8222	O	0.819041	-0.208699	0.809633
	O8223	O	0.863066	-0.210351	0.786802
	O8224	O	0.756737	-0.291199	0.872518
	O8225	O	0.800511	-0.042784	0.810024
	O8226	O	0.755942	-0.039534	0.793897
	O8227	O	0.863245	-0.042042	0.787473
	O8228	O	0.819235	-0.040356	0.810177
	O8229	O	0.863982	-0.292155	0.866020
	O8230	O	0.747294	-0.126548	0.876919
	O8231	O	0.872442	-0.375022	0.782384
	C8232	C	0.846152	-0.285322	0.858557
	C8233	C	0.850608	-0.375610	0.860223
	C8234	C	0.845951	-0.465427	0.859418
	C8235	C	0.837065	-0.465110	0.857157
	C8236	C	0.832605	-0.374724	0.855501
	C8237	C	0.837259	-0.284950	0.856251
	C8238	C	0.823085	-0.374288	0.851174
	C8239	C	0.860144	-0.376279	0.864460
	C8240	C	0.796964	-0.376126	0.851752
	C8241	C	0.787596	-0.376206	0.857409
	C8242	C	0.783184	-0.286084	0.859822
	C8243	C	0.774374	-0.285933	0.863351
	C8244	C	0.769738	-0.375717	0.864564
	C8245	C	0.774153	-0.465742	0.862050
	C8246	C	0.782962	-0.465997	0.858564
	C8247	C	0.760333	-0.375514	0.869977
	C8248	C	0.796669	-0.126762	0.808385
	C8249	C	0.787158	-0.126286	0.804121
	C8250	C	0.782727	-0.036110	0.802464
	C8251	C	0.773830	-0.035160	0.800384
	C8252	C	0.769147	-0.124440	0.799826
	C8253	C	0.773590	-0.214677	0.801176
	C8254	C	0.782484	-0.215569	0.803295
	C8255	C	0.759617	-0.123829	0.795860
	C8256	C	0.822828	-0.124843	0.807674
	C8257	C	0.832246	-0.125247	0.802314
	C8258	C	0.836667	-0.215262	0.799945
	C8259	C	0.845473	-0.215494	0.796394
	C8260	C	0.850090	-0.125839	0.795092
	C8261	C	0.845662	-0.035896	0.797356
	C8262	C	0.836859	-0.035606	0.800861
	C8263	C	0.859472	-0.126119	0.789411
	H8264	H	0.848808	-0.285514	0.794706
	H8265	H	0.833200	-0.285166	0.800948
	H8266	H	0.849665	-0.215741	0.859155
	H8267	H	0.833892	-0.214818	0.854993
	H8268	H	0.809454	-0.376337	0.798586
	H8269	H	0.810135	-0.125439	0.860834
	H8270	H	0.747202	-0.126358	0.860827
	H8271	H	0.872475	-0.375724	0.798448
	H8272	H	0.785809	-0.285709	0.804393
	H8273	H	0.770073	-0.284166	0.800739
	H8274	H	0.771048	-0.215981	0.865169
	H8275	H	0.786674	-0.216214	0.858954
	H8276	H	0.770494	0.035256	0.799288
	H8277	H	0.786246	0.033558	0.802927
	H8278	H	0.786281	-0.536245	0.856684
	H8279	H	0.770684	-0.535712	0.862878
	H8280	H	0.833577	-0.534989	0.856572
	H8281	H	0.849313	-0.535454	0.860647
	H8282	H	0.833540	0.034355	0.802592
	H8283	H	0.849112	0.034166	0.796400
	Al8284	Al	0.809902	-0.000742	0.829636
	Al8285	Al	0.809873	0.249402	0.829906
	Al8286	Al	0.746572	0.249795	0.773574
	Al8287	Al	0.746588	0.000646	0.773758
	O8288	O	0.819329	0.040925	0.849381
	O8289	O	0.809808	0.124421	0.814697
	O8290	O	0.809947	0.374531	0.844958
	O8291	O	0.863765	0.039254	0.866593
	O8292	O	0.800550	0.039219	0.848999
	O8293	O	0.756583	0.040048	0.871957
	O8294	O	0.800759	0.207397	0.849972
	O8295	O	0.800268	0.289033	0.810756
	O8296	O	0.755744	0.292370	0.794295
	O8297	O	0.819428	0.209342	0.849143
	O8298	O	0.819109	0.291052	0.810072
	O8299	O	0.863060	0.289778	0.786882
	O8300	O	0.756696	0.208290	0.872418
	O8301	O	0.800506	0.457127	0.810022
	O8302	O	0.755992	0.460549	0.793464
	O8303	O	0.863186	0.458159	0.787123
	O8304	O	0.819226	0.459344	0.810364
	O8305	O	0.863934	0.207634	0.866037
	O8306	O	0.747281	0.373559	0.876832
	O8307	O	0.872447	0.124889	0.782286
	C8308	C	0.846166	0.214433	0.858483
	C8309	C	0.850615	0.124075	0.860074
	C8310	C	0.845957	0.034361	0.859301
	C8311	C	0.837076	0.035000	0.856951
	C8312	C	0.832627	0.125278	0.855301
	C8313	C	0.837280	0.215024	0.856145
	C8314	C	0.823102	0.125153	0.850996
	C8315	C	0.860125	0.123683	0.864522
	C8316	C	0.796976	0.123285	0.851790
	C8317	C	0.787575	0.123543	0.857305
	C8318	C	0.783165	0.213607	0.859654
	C8319	C	0.774356	0.213954	0.863160
	C8320	C	0.769725	0.124207	0.864421
	C8321	C	0.774122	0.034073	0.861936
	C8322	C	0.782934	0.033864	0.858460
	C8323	C	0.760320	0.124261	0.869968
	C8324	C	0.796648	0.373330	0.808602
	C8325	C	0.787125	0.373944	0.804233
	C8326	C	0.782687	0.464054	0.802369
	C8327	C	0.773806	0.464731	0.800139
	C8328	C	0.769122	0.375432	0.799731
	C8329	C	0.773562	0.285468	0.801461
	C8330	C	0.782446	0.284738	0.803659
	C8331	C	0.759614	0.376060	0.795586
	C8332	C	0.822838	0.375204	0.807886
	C8333	C	0.832223	0.374935	0.802336
	C8334	C	0.836659	0.284780	0.800018
	C8335	C	0.845445	0.284650	0.796389
	C8336	C	0.850066	0.374377	0.794908
	C8337	C	0.845629	0.464545	0.797114
	C8338	C	0.836837	0.464697	0.800732
	C8339	C	0.859449	0.374104	0.789329
	H8340	H	0.848773	0.214480	0.794762
	H8341	H	0.833177	0.215049	0.801180
	H8342	H	0.849674	0.284328	0.859148
	H8343	H	0.833911	0.285349	0.854971
	H8344	H	0.809912	0.124621	0.798632
	H8345	H	0.810072	0.374698	0.861081
	H8346	H	0.747006	0.373131	0.860703
	H8347	H	0.872599	0.125074	0.798391
	H8348	H	0.785797	0.214669	0.804977
	H8349	H	0.770061	0.215969	0.801098
	H8350	H	0.771059	0.284165	0.864962
	H8351	H	0.786643	0.283524	0.858765
	H8352	H	0.770469	0.534825	0.798682
	H8353	H	0.786192	0.533549	0.802720
	H8354	H	0.786236	-0.036386	0.856577
	H8355	H	0.770621	-0.035732	0.862746
	H8356	H	0.833561	-0.034623	0.856415
	H8357	H	0.849290	-0.035998	0.860589
	H8358	H	0.833502	0.534900	0.802434
	H8359	H	0.849126	0.534281	0.796044
	Al8360	Al	0.810876	-0.501019	0.948113
	Al8361	Al	0.810888	-0.250876	0.948025
	Al8362	Al	0.747374	-0.251334	0.891916
	Al8363	Al	0.747390	-0.501291	0.891781
	O8364	O	0.820306	-0.458701	0.967795
	O8365	O	0.810788	-0.376001	0.933006
	O8366	O	0.810995	-0.125528	0.962993
	O8367	O	0.864826	-0.460697	0.984399
	O8368	O	0.801569	-0.461088	0.967611
	O8369	O	0.757602	-0.460380	0.990824
	O8370	O	0.801694	-0.292732	0.967958
	O8371	O	0.801277	-0.211002	0.928919
	O8372	O	0.756798	-0.209389	0.911675
	O8373	O	0.820493	-0.290365	0.967216
	O8374	O	0.820073	-0.209140	0.928108
	O8375	O	0.864082	-0.209947	0.905274
	O8376	O	0.757678	-0.292101	0.991051
	O8377	O	0.801485	-0.042747	0.928172
	O8378	O	0.756950	-0.040952	0.911157
	O8379	O	0.864226	-0.041423	0.905804
	O8380	O	0.820189	-0.040698	0.928286
	O8381	O	0.865049	-0.292539	0.983570
	O8382	O	0.748254	-0.127241	0.995662
	O8383	O	0.873501	-0.375155	0.900824
	C8384	C	0.847238	-0.285786	0.976448
	C8385	C	0.851672	-0.376033	0.978037
	C8386	C	0.847018	-0.465559	0.977188
	C8387	C	0.838126	-0.464892	0.974971
	C8388	C	0.833677	-0.374852	0.973455
	C8389	C	0.838334	-0.285122	0.974228
	C8390	C	0.824135	-0.374657	0.969274
	C8391	C	0.861202	-0.376339	0.982192
	C8392	C	0.797952	-0.376729	0.970085
	C8393	C	0.788553	-0.376421	0.975631
	C8394	C	0.784141	-0.286283	0.977922
	C8395	C	0.775336	-0.286185	0.981471
	C8396	C	0.770711	-0.375980	0.982976
	C8397	C	0.775131	-0.466039	0.980596
	C8398	C	0.783931	-0.466219	0.977058
	C8399	C	0.761322	-0.375947	0.988558
	C8400	C	0.797643	-0.126639	0.926710
	C8401	C	0.788115	-0.126295	0.922484
	C8402	C	0.783656	-0.036289	0.920565
	C8403	C	0.774774	-0.035884	0.918200
	C8404	C	0.770119	-0.125552	0.917597
	C8405	C	0.774569	-0.215572	0.919573
	C8406	C	0.783452	-0.215992	0.921934
	C8407	C	0.760611	-0.125247	0.913272
	C8408	C	0.823806	-0.124941	0.925977
	C8409	C	0.833235	-0.124828	0.920553
	C8410	C	0.837652	-0.214948	0.918284
	C8411	C	0.846461	-0.215187	0.914772
	C8412	C	0.851069	-0.125376	0.913368
	C8413	C	0.846633	-0.035210	0.915489
	C8414	C	0.837820	-0.034907	0.918928
	C8415	C	0.860473	-0.125586	0.907969
	H8416	H	0.849794	-0.285102	0.913080
	H8417	H	0.834183	-0.285098	0.919199
	H8418	H	0.850746	-0.215987	0.976984
	H8419	H	0.834994	-0.214792	0.973130
	H8420	H	0.810710	-0.376172	0.916866
	H8421	H	0.811017	-0.125142	0.979102
	H8422	H	0.748016	-0.127707	0.979677
	H8423	H	0.873747	-0.375385	0.916882
	H8424	H	0.786817	-0.286246	0.923351
	H8425	H	0.771058	-0.285609	0.919124
	H8426	H	0.772017	-0.216293	0.983207
	H8427	H	0.787607	-0.216402	0.976950
	H8428	H	0.771431	0.034240	0.916667
	H8429	H	0.787168	0.033444	0.920805
	H8430	H	0.787285	-0.536358	0.975407
	H8431	H	0.771661	-0.535890	0.981619
	H8432	H	0.834629	-0.534543	0.974412
	H8433	H	0.850344	-0.535928	0.978327
	H8434	H	0.834460	0.035307	0.920349
	H8435	H	0.850079	0.034675	0.914402
	Al8436	Al	0.810914	-0.000766	0.947905
	Al8437	Al	0.810878	0.248908	0.948053
	Al8438	Al	0.747393	0.248566	0.891908
	Al8439	Al	0.747362	-0.001649	0.891949
	O8440	O	0.820356	0.041310	0.967461
	O8441	O	0.810763	0.124316	0.932973
	O8442	O	0.811024	0.373986	0.963139
	O8443	O	0.864872	0.039638	0.984287
	O8444	O	0.801587	0.038662	0.967483
	O8445	O	0.757576	0.040013	0.990678
	O8446	O	0.801701	0.206987	0.967993
	O8447	O	0.801296	0.288918	0.928901
	O8448	O	0.756799	0.290799	0.911596
	O8449	O	0.820501	0.209501	0.967173
	O8450	O	0.820056	0.291153	0.928022
	O8451	O	0.864040	0.289435	0.905183
	O8452	O	0.757759	0.208260	0.991210
	O8453	O	0.801491	0.457317	0.928231
	O8454	O	0.756976	0.459036	0.910983
	O8455	O	0.864180	0.457849	0.905669
	O8456	O	0.820194	0.459439	0.928557
	O8457	O	0.864981	0.208169	0.983944
	O8458	O	0.748262	0.372970	0.995616
	O8459	O	0.873471	0.124906	0.900775
	C8460	C	0.847195	0.213891	0.976715
	C8461	C	0.851678	0.123865	0.978120
	C8462	C	0.847039	0.034167	0.977232
	C8463	C	0.838159	0.034521	0.974935
	C8464	C	0.833681	0.124711	0.973441
	C8465	C	0.838313	0.214270	0.974385
	C8466	C	0.824189	0.125148	0.969110
	C8467	C	0.861168	0.123809	0.982357
	C8468	C	0.797966	0.122750	0.970032
	C8469	C	0.788575	0.122887	0.975637
	C8470	C	0.784162	0.212932	0.977986
	C8471	C	0.775344	0.213357	0.981537
	C8472	C	0.770736	0.123666	0.982931
	C8473	C	0.775139	0.033724	0.980443
	C8474	C	0.783948	0.033334	0.976871
	C8475	C	0.761353	0.123904	0.988633
	C8476	C	0.797643	0.373242	0.926811
	C8477	C	0.788135	0.373465	0.922299
	C8478	C	0.783681	0.463414	0.920508
	C8479	C	0.774795	0.463938	0.918130
	C8480	C	0.770140	0.374347	0.917515
	C8481	C	0.774592	0.284252	0.919316
	C8482	C	0.783472	0.283872	0.921710
	C8483	C	0.760636	0.374668	0.913097
	C8484	C	0.823824	0.375263	0.926044
	C8485	C	0.833187	0.375395	0.920379
	C8486	C	0.837606	0.285202	0.918195
	C8487	C	0.846405	0.284504	0.914670
	C8488	C	0.851047	0.373992	0.913242
	C8489	C	0.846635	0.464227	0.915398
	C8490	C	0.837828	0.464917	0.918924
	C8491	C	0.860416	0.373649	0.907644
	H8492	H	0.849707	0.214256	0.912994
	H8493	H	0.834106	0.215529	0.919277
	H8494	H	0.850696	0.283719	0.977505
	H8495	H	0.834945	0.284184	0.973385
	H8496	H	0.810640	0.123783	0.916920
	H8497	H	0.811212	0.373859	0.979218
	H8498	H	0.747986	0.372907	0.979606
	H8499	H	0.873637	0.124578	0.916901
	H8500	H	0.786815	0.213585	0.923026
	H8501	H	0.771092	0.214114	0.918738
	H8502	H	0.772036	0.283564	0.983313
	H8503	H	0.787636	0.282815	0.976949
	H8504	H	0.771463	0.534051	0.916648
	H8505	H	0.787189	0.533031	0.920843
	H8506	H	0.787224	-0.036940	0.975033
	H8507	H	0.771679	-0.036552	0.981316
	H8508	H	0.834667	-0.035413	0.974341
	H8509	H	0.850393	-0.035993	0.978404
	H8510	H	0.834512	0.535034	0.920590
	H8511	H	0.850133	0.534015	0.914325
	Al8512	Al	0.938039	-0.498831	0.059219
	Al8513	Al	0.938001	-0.248903	0.059060
	Al8514	Al	0.874417	-0.250275	0.003404
	Al8515	Al	0.874455	-0.500368	0.003273
	O8516	O	0.947418	-0.456776	0.078960
	O8517	O	0.937924	-0.373960	0.044161
	O8518	O	0.938081	-0.124251	0.074101
	O8519	O	0.991988	-0.459045	0.095426
	O8520	O	0.928720	-0.459069	0.078743
	O8521	O	0.884683	-0.457892	0.101580
	O8522	O	0.928854	-0.290882	0.079120
	O8523	O	0.928369	-0.209665	0.040029
	O8524	O	0.883857	-0.208137	0.023127
	O8525	O	0.947596	-0.288247	0.078229
	O8526	O	0.947157	-0.206868	0.038957
	O8527	O	0.991161	-0.208774	0.015989
	O8528	O	0.884815	-0.289537	0.101967
	O8529	O	0.928545	-0.041285	0.039434
	O8530	O	0.883993	-0.040135	0.022726
	O8531	O	0.991341	-0.040451	0.016569
	O8532	O	0.947383	-0.038636	0.039635
	O8533	O	0.992146	-0.290823	0.094932
	O8534	O	0.875408	-0.124944	0.106439
	O8535	O	1.000622	-0.374071	0.011719
	C8536	C	0.974355	-0.284442	0.087321
	C8537	C	0.978796	-0.374541	0.089100
	C8538	C	0.974114	-0.463990	0.088469
	C8539	C	0.965214	-0.463267	0.086218
	C8540	C	0.960771	-0.373055	0.084484
	C8541	C	0.965464	-0.283616	0.085076
	C8542	C	0.951246	-0.372634	0.080343
	C8543	C	0.988326	-0.374860	0.093412
	C8544	C	0.925091	-0.375054	0.081199
	C8545	C	0.915690	-0.374920	0.086697
	C8546	C	0.911272	-0.284924	0.088753
	C8547	C	0.902471	-0.284595	0.092348
	C8548	C	0.897837	-0.374183	0.093919
	C8549	C	0.902244	-0.464081	0.091796
	C8550	C	0.911051	-0.464337	0.088227
	C8551	C	0.888439	-0.373776	0.099536
	C8552	C	0.924709	-0.125321	0.037873
	C8553	C	0.915206	-0.124882	0.033586
	C8554	C	0.910746	-0.034994	0.031990
	C8555	C	0.901859	-0.034678	0.029745
	C8556	C	0.897193	-0.124362	0.028981
	C8557	C	0.901670	-0.214273	0.030599
	C8558	C	0.910552	-0.214553	0.032882
	C8559	C	0.887678	-0.124114	0.024764
	C8560	C	0.950956	-0.123067	0.036920
	C8561	C	0.960326	-0.123586	0.031501
	C8562	C	0.964744	-0.213707	0.029117
	C8563	C	0.973550	-0.213949	0.025622
	C8564	C	0.978184	-0.124174	0.024262
	C8565	C	0.973754	-0.034078	0.026645
	C8566	C	0.964952	-0.033737	0.030153
	C8567	C	0.987567	-0.124493	0.018696
	H8568	H	0.976854	-0.284387	0.023936
	H8569	H	0.961252	-0.283491	0.030050
	H8570	H	0.977883	-0.214749	0.087656
	H8571	H	0.962160	-0.213202	0.083609
	H8572	H	0.937570	-0.373884	0.027993
	H8573	H	0.938240	-0.124216	0.090270
	H8574	H	0.875432	-0.124931	0.090327
	H8575	H	1.000960	-0.374650	0.027832
	H8576	H	0.913921	-0.284582	0.034117
	H8577	H	0.898194	-0.284184	0.030107
	H8578	H	0.899158	-0.214361	0.094015
	H8579	H	0.914731	-0.215031	0.087547
	H8580	H	0.898498	0.035494	0.028598
	H8581	H	0.914254	0.034889	0.032496
	H8582	H	0.914370	-0.534600	0.086603
	H8583	H	0.898786	-0.533963	0.092984
	H8584	H	0.961690	-0.532995	0.085712
	H8585	H	0.977438	-0.534147	0.089717
	H8586	H	0.961658	0.036670	0.031940
	H8587	H	0.977260	0.035649	0.025784
	Al8588	Al	0.938029	0.000865	0.059062
	Al8589	Al	0.937973	0.251077	0.059036
	Al8590	Al	0.874458	0.249673	0.003467
	Al8591	Al	0.874459	-0.000317	0.003358
	O8592	O	0.947436	0.042706	0.078667
	O8593	O	0.937939	0.125957	0.044017
	O8594	O	0.938111	0.376111	0.074167
	O8595	O	0.991941	0.040826	0.095550
	O8596	O	0.928709	0.040881	0.078607
	O8597	O	0.884680	0.041368	0.101661
	O8598	O	0.928827	0.209242	0.079061
	O8599	O	0.928425	0.290897	0.039961
	O8600	O	0.883887	0.291561	0.023072
	O8601	O	0.947542	0.211204	0.078387
	O8602	O	0.947208	0.292975	0.039231
	O8603	O	0.991171	0.291004	0.015938
	O8604	O	0.884810	0.209382	0.101899
	O8605	O	0.928591	0.459050	0.039548
	O8606	O	0.884057	0.459840	0.022489
	O8607	O	0.991363	0.459146	0.016663
	O8608	O	0.947383	0.461321	0.039725
	O8609	O	0.992097	0.209110	0.094904
	O8610	O	0.875386	0.374836	0.106485
	O8611	O	1.000563	0.126202	0.011626
	C8612	C	0.974294	0.215424	0.087438
	C8613	C	0.978754	0.125210	0.089087
	C8614	C	0.974073	0.035685	0.088488
	C8615	C	0.965193	0.036170	0.086268
	C8616	C	0.960734	0.126595	0.084516
	C8617	C	0.965403	0.216123	0.085255
	C8618	C	0.951218	0.127011	0.080315
	C8619	C	0.988276	0.124919	0.093455
	C8620	C	0.925083	0.125024	0.081103
	C8621	C	0.915698	0.124896	0.086691
	C8622	C	0.911256	0.214852	0.088867
	C8623	C	0.902445	0.215167	0.092387
	C8624	C	0.897825	0.125382	0.093892
	C8625	C	0.902260	0.035602	0.091590
	C8626	C	0.911069	0.035241	0.088108
	C8627	C	0.888422	0.125375	0.099457
	C8628	C	0.924775	0.375158	0.037886
	C8629	C	0.915240	0.375365	0.033529
	C8630	C	0.910749	0.465262	0.031962
	C8631	C	0.901870	0.465648	0.029668
	C8632	C	0.897230	0.375858	0.028801
	C8633	C	0.901709	0.285989	0.030440
	C8634	C	0.910589	0.285658	0.032737
	C8635	C	0.887717	0.375626	0.024513
	C8636	C	0.950973	0.377076	0.037215
	C8637	C	0.960341	0.376685	0.031512
	C8638	C	0.964748	0.286485	0.029236
	C8639	C	0.973539	0.285852	0.025604
	C8640	C	0.978196	0.375354	0.024258
	C8641	C	0.973790	0.465420	0.026575
	C8642	C	0.964984	0.466118	0.030171
	C8643	C	0.987570	0.375106	0.018512
	H8644	H	0.976837	0.215679	0.023876
	H8645	H	0.961288	0.216549	0.030321
	H8646	H	0.977810	0.285150	0.087852
	H8647	H	0.962041	0.286528	0.084003
	H8648	H	0.937914	0.126357	0.027880
	H8649	H	0.938371	0.375754	0.090314
	H8650	H	0.875199	0.375065	0.090415
	H8651	H	1.000597	0.126395	0.027771
	H8652	H	0.913953	0.215612	0.034060
	H8653	H	0.898214	0.216311	0.029919
	H8654	H	0.899111	0.285246	0.094081
	H8655	H	0.914727	0.284645	0.087790
	H8656	H	0.898492	0.535682	0.028530
	H8657	H	0.914242	0.535041	0.032700
	H8658	H	0.914408	-0.034880	0.086458
	H8659	H	0.898786	-0.034305	0.092627
	H8660	H	0.961683	-0.033499	0.085816
	H8661	H	0.977419	-0.034514	0.089701
	H8662	H	0.961684	0.536503	0.031967
	H8663	H	0.977278	0.535221	0.025612
	Al8664	Al	0.939037	-0.499178	0.176859
	Al8665	Al	0.939054	-0.249351	0.176757
	Al8666	Al	0.875521	-0.250099	0.121510
	Al8667	Al	0.875501	-0.500202	0.121500
	O8668	O	0.948510	-0.457529	0.196352
	O8669	O	0.938943	-0.374717	0.161788
	O8670	O	0.939126	-0.124359	0.191837
	O8671	O	0.993049	-0.459446	0.213127
	O8672	O	0.929772	-0.459192	0.196544
	O8673	O	0.885744	-0.458852	0.219669
	O8674	O	0.929841	-0.290959	0.196713
	O8675	O	0.929526	-0.209238	0.157479
	O8676	O	0.884976	-0.208526	0.141068
	O8677	O	0.948646	-0.289266	0.195943
	O8678	O	0.948250	-0.207631	0.156886
	O8679	O	0.992285	-0.209232	0.134277
	O8680	O	0.885861	-0.290582	0.219791
	O8681	O	0.929608	-0.041043	0.157296
	O8682	O	0.885076	-0.040320	0.140769
	O8683	O	0.992421	-0.041017	0.134558
	O8684	O	0.948334	-0.039521	0.157161
	O8685	O	0.993119	-0.291307	0.212973
	O8686	O	0.876481	-0.125413	0.224399
	O8687	O	1.001675	-0.373913	0.129700
	C8688	C	0.975381	-0.285266	0.205363
	C8689	C	0.979832	-0.375601	0.206949
	C8690	C	0.975150	-0.465071	0.206331
	C8691	C	0.966268	-0.464111	0.204064
	C8692	C	0.961824	-0.373728	0.202295
	C8693	C	0.966502	-0.284345	0.203075
	C8694	C	0.952324	-0.373366	0.197848
	C8695	C	0.989334	-0.375598	0.211268
	C8696	C	0.926127	-0.375156	0.198888
	C8697	C	0.916728	-0.375496	0.204528
	C8698	C	0.912288	-0.285775	0.206636
	C8699	C	0.903487	-0.285492	0.210261
	C8700	C	0.898891	-0.375105	0.211878
	C8701	C	0.903320	-0.465009	0.209668
	C8702	C	0.912118	-0.465062	0.206044
	C8703	C	0.889487	-0.374883	0.217483
	C8704	C	0.925834	-0.125308	0.155650
	C8705	C	0.916301	-0.125233	0.151547
	C8706	C	0.911824	-0.035183	0.150038
	C8707	C	0.902935	-0.034758	0.147864
	C8708	C	0.898279	-0.124423	0.147088
	C8709	C	0.902768	-0.214438	0.148453
	C8710	C	0.911657	-0.214903	0.150622
	C8711	C	0.888763	-0.124290	0.142766
	C8712	C	0.951979	-0.123539	0.154804
	C8713	C	0.961372	-0.123801	0.149270
	C8714	C	0.965790	-0.213890	0.146951
	C8715	C	0.974603	-0.214372	0.143408
	C8716	C	0.979247	-0.124870	0.142089
	C8717	C	0.974822	-0.034747	0.144385
	C8718	C	0.966007	-0.034206	0.147889
	C8719	C	0.988646	-0.125094	0.136651
	H8720	H	0.977908	-0.284747	0.141559
	H8721	H	0.962308	-0.283958	0.147799
	H8722	H	0.978902	-0.215649	0.206012
	H8723	H	0.963144	-0.214290	0.202000
	H8724	H	0.938969	-0.374573	0.145699
	H8725	H	0.939167	-0.124767	0.207994
	H8726	H	0.876422	-0.125759	0.208198
	H8727	H	1.001753	-0.373436	0.145780
	H8728	H	0.915018	-0.285118	0.151649
	H8729	H	0.899274	-0.284175	0.147853
	H8730	H	0.900162	-0.215525	0.211944
	H8731	H	0.915728	-0.215725	0.205466
	H8732	H	0.899570	0.035467	0.146778
	H8733	H	0.915351	0.034426	0.150664
	H8734	H	0.915467	-0.535077	0.204453
	H8735	H	0.899854	-0.534946	0.210886
	H8736	H	0.962741	-0.533824	0.203713
	H8737	H	0.978486	-0.535188	0.207827
	H8738	H	0.962698	0.035960	0.149496
	H8739	H	0.978281	0.035135	0.143352
	Al8740	Al	0.939061	0.000707	0.176851
	Al8741	Al	0.939057	0.250635	0.176954
	Al8742	Al	0.875502	0.249991	0.121540
	Al8743	Al	0.875484	-0.000216	0.121540
	O8744	O	0.948489	0.042424	0.196451
	O8745	O	0.938922	0.125650	0.161842
	O8746	O	0.939145	0.375784	0.192014
	O8747	O	0.993037	0.040051	0.213324
	O8748	O	0.929758	0.040741	0.196531
	O8749	O	0.885736	0.040743	0.219644
	O8750	O	0.929867	0.208980	0.196873
	O8751	O	0.929477	0.290532	0.157640
	O8752	O	0.884959	0.291272	0.141116
	O8753	O	0.948654	0.210871	0.195989
	O8754	O	0.948223	0.292451	0.157035
	O8755	O	0.992233	0.290718	0.133993
	O8756	O	0.885853	0.209022	0.219836
	O8757	O	0.929588	0.458556	0.157604
	O8758	O	0.885060	0.459646	0.140760
	O8759	O	0.992400	0.458813	0.134482
	O8760	O	0.948373	0.460821	0.157315
	O8761	O	0.993219	0.208258	0.212526
	O8762	O	0.876487	0.374401	0.224514
	O8763	O	1.001662	0.126436	0.129618
	C8764	C	0.975412	0.215047	0.205192
	C8765	C	0.979852	0.124866	0.206934
	C8766	C	0.975192	0.035233	0.206157
	C8767	C	0.966300	0.035863	0.203922
	C8768	C	0.961838	0.126087	0.202233
	C8769	C	0.966506	0.215663	0.202962
	C8770	C	0.952320	0.126582	0.197987
	C8771	C	0.989386	0.124392	0.211061
	C8772	C	0.926139	0.124912	0.199075
	C8773	C	0.916734	0.124721	0.204595
	C8774	C	0.912277	0.214546	0.206711
	C8775	C	0.903469	0.214730	0.210256
	C8776	C	0.898886	0.124829	0.211884
	C8777	C	0.903339	0.035075	0.209692
	C8778	C	0.912150	0.034906	0.206138
	C8779	C	0.889475	0.124897	0.217414
	C8780	C	0.925786	0.374604	0.155784
	C8781	C	0.916281	0.374689	0.151447
	C8782	C	0.911783	0.464646	0.150074
	C8783	C	0.902906	0.465057	0.147825
	C8784	C	0.898263	0.375437	0.146934
	C8785	C	0.902752	0.285550	0.148265
	C8786	C	0.911641	0.285132	0.150552
	C8787	C	0.888764	0.375473	0.142667
	C8788	C	0.951990	0.376563	0.154874
	C8789	C	0.961367	0.376293	0.149335
	C8790	C	0.965813	0.286275	0.147150
	C8791	C	0.974602	0.285705	0.143629
	C8792	C	0.979225	0.375387	0.141992
	C8793	C	0.974810	0.465483	0.144346
	C8794	C	0.966008	0.465898	0.147833
	C8795	C	0.988628	0.374842	0.136565
	H8796	H	0.977927	0.215509	0.142039
	H8797	H	0.962322	0.216410	0.148133
	H8798	H	0.978938	0.285009	0.205737
	H8799	H	0.963188	0.286291	0.201958
	H8800	H	0.938871	0.125894	0.145724
	H8801	H	0.939294	0.375276	0.208123
	H8802	H	0.876405	0.374307	0.208344
	H8803	H	1.001836	0.126363	0.145796
	H8804	H	0.915010	0.215138	0.151731
	H8805	H	0.899243	0.215564	0.147586
	H8806	H	0.900152	0.284672	0.211705
	H8807	H	0.915726	0.284600	0.205452
	H8808	H	0.899546	0.535052	0.146862
	H8809	H	0.915276	0.534380	0.150831
	H8810	H	0.915467	-0.035104	0.204426
	H8811	H	0.899879	-0.034941	0.210674
	H8812	H	0.962769	-0.033778	0.203686
	H8813	H	0.978501	-0.035252	0.207559
	H8814	H	0.962696	0.536087	0.149433
	H8815	H	0.978328	0.535020	0.143314
	Al8816	Al	0.940155	-0.500403	0.295213
	Al8817	Al	0.940144	-0.250699	0.295173
	Al8818	Al	0.876550	-0.250468	0.239460
	Al8819	Al	0.876548	-0.500546	0.239572
	O8820	O	0.949551	-0.458601	0.314964
	O8821	O	0.940032	-0.375733	0.280139
	O8822	O	0.940251	-0.125180	0.310149
	O8823	O	0.994009	-0.461075	0.331589
	O8824	O	0.930779	-0.460403	0.314725
	O8825	O	0.886781	-0.459413	0.337826
	O8826	O	0.930971	-0.292407	0.315173
	O8827	O	0.930518	-0.210734	0.276120
	O8828	O	0.885988	-0.208283	0.259186
	O8829	O	0.949728	-0.290255	0.314270
	O8830	O	0.949273	-0.208801	0.274987
	O8831	O	0.993248	-0.209638	0.252037
	O8832	O	0.886960	-0.291277	0.338299
	O8833	O	0.930647	-0.042328	0.275638
	O8834	O	0.886130	-0.040214	0.258724
	O8835	O	0.993419	-0.041412	0.252414
	O8836	O	0.949459	-0.040427	0.275818
	O8837	O	0.994230	-0.292813	0.330993
	O8838	O	0.877529	-0.126208	0.342705
	O8839	O	1.002683	-0.375101	0.247524
	C8840	C	0.976395	-0.286031	0.323860
	C8841	C	0.980851	-0.376008	0.325392
	C8842	C	0.976188	-0.465457	0.324809
	C8843	C	0.967321	-0.465024	0.322609
	C8844	C	0.962868	-0.374995	0.320883
	C8845	C	0.967514	-0.285462	0.321642
	C8846	C	0.953359	-0.374555	0.316504
	C8847	C	0.990378	-0.376695	0.329499
	C8848	C	0.927184	-0.376280	0.317155
	C8849	C	0.917812	-0.376083	0.322765
	C8850	C	0.913384	-0.286197	0.325138
	C8851	C	0.904575	-0.285971	0.328815
	C8852	C	0.899948	-0.375537	0.330219
	C8853	C	0.904368	-0.465431	0.327772
	C8854	C	0.913182	-0.465631	0.324098
	C8855	C	0.890573	-0.375384	0.335868
	C8856	C	0.926849	-0.126411	0.274078
	C8857	C	0.917340	-0.126015	0.269609
	C8858	C	0.912882	-0.036069	0.268109
	C8859	C	0.903997	-0.035570	0.265869
	C8860	C	0.899330	-0.124961	0.264981
	C8861	C	0.903783	-0.215047	0.266446
	C8862	C	0.912670	-0.215551	0.268699
	C8863	C	0.889806	-0.124333	0.260725
	C8864	C	0.953066	-0.124618	0.273183
	C8865	C	0.962453	-0.124858	0.267586
	C8866	C	0.966869	-0.214799	0.265078
	C8867	C	0.975669	-0.214937	0.261487
	C8868	C	0.980278	-0.125272	0.260171
	C8869	C	0.975855	-0.035195	0.262493
	C8870	C	0.967052	-0.035066	0.266124
	C8871	C	0.989654	-0.125537	0.254489
	H8872	H	0.978981	-0.285025	0.259577
	H8873	H	0.963402	-0.284820	0.265999
	H8874	H	0.979916	-0.216572	0.324349
	H8875	H	0.964171	-0.215270	0.320419
	H8876	H	0.939747	-0.375411	0.264030
	H8877	H	0.940409	-0.124997	0.326387
	H8878	H	0.877359	-0.126476	0.326608
	H8879	H	1.002885	-0.375494	0.263609
	H8880	H	0.916012	-0.285831	0.269740
	H8881	H	0.900290	-0.284981	0.265728
	H8882	H	0.901276	-0.215726	0.330667
	H8883	H	0.916852	-0.216224	0.324119
	H8884	H	0.900659	0.034399	0.264679
	H8885	H	0.916386	0.033776	0.268683
	H8886	H	0.916490	-0.535736	0.322238
	H8887	H	0.900893	-0.535336	0.328791
	H8888	H	0.963811	-0.534738	0.322128
	H8889	H	0.979516	-0.535594	0.326060
	H8890	H	0.963725	0.034887	0.267811
	H8891	H	0.979307	0.034763	0.261416
	Al8892	Al	0.940086	-0.000236	0.295166
	Al8893	Al	0.940121	0.249375	0.295181
	Al8894	Al	0.876575	0.249495	0.239466
	Al8895	Al	0.876535	-0.000418	0.239562
	O8896	O	0.949476	0.041697	0.315027
	O8897	O	0.940008	0.124674	0.280051
	O8898	O	0.940195	0.374442	0.310217
	O8899	O	0.994015	0.038841	0.331587
	O8900	O	0.930807	0.040123	0.314713
	O8901	O	0.886818	0.040836	0.337823
	O8902	O	0.930910	0.208307	0.315080
	O8903	O	0.930556	0.289654	0.275881
	O8904	O	0.886024	0.291203	0.259111
	O8905	O	0.949658	0.209847	0.314569
	O8906	O	0.949324	0.291345	0.275292
	O8907	O	0.993263	0.290138	0.251801
	O8908	O	0.886971	0.208919	0.338440
	O8909	O	0.930703	0.457913	0.275477
	O8910	O	0.886161	0.459458	0.258718
	O8911	O	0.993414	0.458547	0.252328
	O8912	O	0.949463	0.459509	0.275792
	O8913	O	0.994193	0.207182	0.330911
	O8914	O	0.877519	0.373471	0.342807
	O8915	O	1.002729	0.125338	0.247439
	C8916	C	0.976356	0.213729	0.323919
	C8917	C	0.980823	0.123615	0.325396
	C8918	C	0.976163	0.034135	0.324825
	C8919	C	0.967270	0.034623	0.322616
	C8920	C	0.962822	0.124923	0.320953
	C8921	C	0.967475	0.214420	0.321741
	C8922	C	0.953292	0.125502	0.316582
	C8923	C	0.990357	0.123217	0.329503
	C8924	C	0.927175	0.124060	0.317148
	C8925	C	0.917787	0.124380	0.322763
	C8926	C	0.913362	0.214296	0.325063
	C8927	C	0.904561	0.214398	0.328660
	C8928	C	0.899961	0.124609	0.330203
	C8929	C	0.904401	0.034704	0.327949
	C8930	C	0.913198	0.034656	0.324379
	C8931	C	0.890571	0.124838	0.335802
	C8932	C	0.926892	0.373901	0.273873
	C8933	C	0.917358	0.374173	0.269647
	C8934	C	0.912876	0.464333	0.268166
	C8935	C	0.903987	0.464765	0.265935
	C8936	C	0.899350	0.374998	0.264948
	C8937	C	0.903826	0.284861	0.266512
	C8938	C	0.912711	0.284411	0.268739
	C8939	C	0.889833	0.375198	0.260720
	C8940	C	0.953091	0.375446	0.273275
	C8941	C	0.962483	0.375339	0.267643
	C8942	C	0.966890	0.285235	0.265117
	C8943	C	0.975689	0.284987	0.261443
	C8944	C	0.980308	0.374753	0.260072
	C8945	C	0.975906	0.464930	0.262488
	C8946	C	0.967098	0.465088	0.266184
	C8947	C	0.989675	0.374441	0.254350
	H8948	H	0.978990	0.214637	0.259554
	H8949	H	0.963428	0.215429	0.266136
	H8950	H	0.979865	0.283631	0.324386
	H8951	H	0.964137	0.284654	0.320621
	H8952	H	0.939912	0.125077	0.263986
	H8953	H	0.940189	0.374303	0.326327
	H8954	H	0.877414	0.373407	0.326630
	H8955	H	1.002947	0.125678	0.263561
	H8956	H	0.916093	0.214370	0.269834
	H8957	H	0.900323	0.214888	0.265902
	H8958	H	0.901242	0.284231	0.330322
	H8959	H	0.916843	0.284293	0.324125
	H8960	H	0.900626	0.534783	0.264890
	H8961	H	0.916375	0.534039	0.268806
	H8962	H	0.916519	-0.035181	0.322856
	H8963	H	0.900944	-0.035159	0.328968
	H8964	H	0.963742	-0.034962	0.322162
	H8965	H	0.979503	-0.036023	0.326007
	H8966	H	0.963783	0.535140	0.268091
	H8967	H	0.979365	0.534762	0.261523
	Al8968	Al	0.940983	-0.501599	0.413826
	Al8969	Al	0.940956	-0.252226	0.413972
	Al8970	Al	0.877633	-0.251455	0.357769
	Al8971	Al	0.877598	-0.501332	0.357792
	O8972	O	0.949622	-0.459751	0.435953
	O8973	O	0.940970	-0.376871	0.398952
	O8974	O	0.940762	-0.127002	0.428920
	O8975	O	0.987794	-0.458315	0.501817
	O8976	O	0.931466	-0.462385	0.432836
	O8977	O	0.887865	-0.460443	0.457730
	O8978	O	0.931617	-0.293709	0.433437
	O8979	O	0.931558	-0.211835	0.393972
	O8980	O	0.887053	-0.209805	0.377402
	O8981	O	0.949822	-0.291669	0.435467
	O8982	O	0.950290	-0.210102	0.395181
	O8983	O	0.993910	-0.211054	0.370582
	O8984	O	0.887989	-0.292174	0.458108
	O8985	O	0.931744	-0.043412	0.393289
	O8986	O	0.887185	-0.041501	0.377069
	O8987	O	0.994099	-0.042639	0.371056
	O8988	O	0.950462	-0.041777	0.395634
	O8989	O	0.987865	-0.290161	0.501488
	O8990	O	0.878546	-0.127511	0.461416
	O8991	O	1.003117	-0.375862	0.366646
	C8992	C	0.972630	-0.286090	0.474930
	C8993	C	0.976456	-0.375083	0.481897
	C8994	C	0.972488	-0.464539	0.475575
	C8995	C	0.964877	-0.464832	0.462543
	C8996	C	0.961048	-0.375726	0.455615
	C8997	C	0.965034	-0.286321	0.461901
	C8998	C	0.952939	-0.375701	0.441244
	C8999	C	0.984613	-0.374410	0.496162
	C9000	C	0.927919	-0.377845	0.435672
	C9001	C	0.918639	-0.377696	0.442062
	C9002	C	0.914298	-0.287637	0.444811
	C9003	C	0.905550	-0.287328	0.449101
	C9004	C	0.900970	-0.376787	0.450545
	C9005	C	0.905332	-0.466710	0.448053
	C9006	C	0.914067	-0.467157	0.443826
	C9007	C	0.891610	-0.376167	0.455906
	C9008	C	0.927914	-0.127539	0.391957
	C9009	C	0.918374	-0.127012	0.387815
	C9010	C	0.913913	-0.036916	0.386181
	C9011	C	0.905027	-0.036296	0.384050
	C9012	C	0.900375	-0.125981	0.383334
	C9013	C	0.904838	-0.216083	0.385065
	C9014	C	0.913717	-0.216620	0.387203
	C9015	C	0.890859	-0.125687	0.379027
	C9016	C	0.954052	-0.126148	0.393396
	C9017	C	0.963397	-0.126017	0.388072
	C9018	C	0.967773	-0.215707	0.385607
	C9019	C	0.976512	-0.216038	0.381365
	C9020	C	0.981076	-0.126431	0.379570
	C9021	C	0.976708	-0.036790	0.382380
	C9022	C	0.967967	-0.036329	0.386602
	C9023	C	0.990361	-0.126795	0.373290
	H9024	H	0.979826	-0.285628	0.379216
	H9025	H	0.964299	-0.285361	0.386866
	H9026	H	0.975624	-0.216811	0.479804
	H9027	H	0.962188	-0.217308	0.456540
	H9028	H	0.940817	-0.376632	0.382902
	H9029	H	0.940435	-0.126872	0.445040
	H9030	H	0.878569	-0.127445	0.445295
	H9031	H	1.002692	-0.376151	0.382730
	H9032	H	0.917058	-0.286635	0.388455
	H9033	H	0.901335	-0.285870	0.384641
	H9034	H	0.902257	-0.217579	0.451237
	H9035	H	0.917781	-0.218250	0.443460
	H9036	H	0.901673	0.033968	0.382829
	H9037	H	0.917436	0.032777	0.386585
	H9038	H	0.917345	-0.537183	0.441733
	H9039	H	0.901862	-0.536343	0.449402
	H9040	H	0.961892	-0.533988	0.457587
	H9041	H	0.975356	-0.533371	0.480924
	H9042	H	0.964660	0.033177	0.388737
	H9043	H	0.980141	0.032846	0.381021
	Al9044	Al	0.940948	-0.001324	0.413941
	Al9045	Al	0.940946	0.247809	0.413924
	Al9046	Al	0.877633	0.248838	0.357863
	Al9047	Al	0.877618	-0.001343	0.357853
	O9048	O	0.949719	0.040104	0.435777
	O9049	O	0.941060	0.123222	0.398958
	O9050	O	0.940731	0.373266	0.428820
	O9051	O	0.987760	0.041402	0.502004
	O9052	O	0.931500	0.038227	0.432962
	O9053	O	0.887807	0.039202	0.457445
	O9054	O	0.931591	0.206563	0.433288
	O9055	O	0.931558	0.287688	0.393825
	O9056	O	0.887005	0.290840	0.377594
	O9057	O	0.949803	0.208328	0.435463
	O9058	O	0.950324	0.290067	0.395212
	O9059	O	0.993948	0.288654	0.370408
	O9060	O	0.887994	0.207604	0.458158
	O9061	O	0.931735	0.455940	0.393303
	O9062	O	0.887226	0.459095	0.376931
	O9063	O	0.994091	0.457050	0.371008
	O9064	O	0.950502	0.458311	0.395691
	O9065	O	0.987882	0.209556	0.501608
	O9066	O	0.878584	0.372871	0.461402
	O9067	O	1.003206	0.124121	0.366513
	C9068	C	0.972656	0.213899	0.475060
	C9069	C	0.976448	0.125082	0.481994
	C9070	C	0.972490	0.036099	0.475540
	C9071	C	0.964896	0.035893	0.462433
	C9072	C	0.961097	0.124665	0.455556
	C9073	C	0.965056	0.213756	0.461974
	C9074	C	0.952949	0.124553	0.441199
	C9075	C	0.984630	0.125371	0.496283
	C9076	C	0.927926	0.122251	0.435720
	C9077	C	0.918636	0.122457	0.442129
	C9078	C	0.914262	0.212354	0.444810
	C9079	C	0.905532	0.212395	0.449003
	C9080	C	0.900936	0.122845	0.450531
	C9081	C	0.905315	0.032950	0.448104
	C9082	C	0.914055	0.032672	0.443913
	C9083	C	0.891586	0.123071	0.455746
	C9084	C	0.927913	0.371992	0.391856
	C9085	C	0.918384	0.372548	0.387908
	C9086	C	0.913942	0.462814	0.386294
	C9087	C	0.905063	0.463648	0.384083
	C9088	C	0.900372	0.374087	0.383300
	C9089	C	0.904803	0.283807	0.385136
	C9090	C	0.913699	0.282963	0.387304
	C9091	C	0.890860	0.374657	0.379030
	C9092	C	0.954095	0.373985	0.393392
	C9093	C	0.963452	0.373520	0.388132
	C9094	C	0.967800	0.283525	0.385592
	C9095	C	0.976538	0.283137	0.381295
	C9096	C	0.981096	0.372709	0.379429
	C9097	C	0.976774	0.462658	0.382316
	C9098	C	0.968035	0.463054	0.386606
	C9099	C	0.990386	0.372881	0.373247
	H9100	H	0.979822	0.213315	0.379206
	H9101	H	0.964321	0.214030	0.386867
	H9102	H	0.975644	0.282806	0.479909
	H9103	H	0.962172	0.282499	0.456716
	H9104	H	0.941063	0.123131	0.382884
	H9105	H	0.940283	0.373483	0.444846
	H9106	H	0.878592	0.373353	0.445287
	H9107	H	1.002876	0.123792	0.382522
	H9108	H	0.917042	0.212809	0.388492
	H9109	H	0.901260	0.214327	0.384720
	H9110	H	0.902200	0.282108	0.451062
	H9111	H	0.917712	0.281647	0.443443
	H9112	H	0.901733	0.533884	0.382908
	H9113	H	0.917469	0.532459	0.386684
	H9114	H	0.917394	-0.037006	0.441870
	H9115	H	0.901834	-0.036550	0.449409
	H9116	H	0.961931	-0.033483	0.457469
	H9117	H	0.975348	-0.032922	0.480823
	H9118	H	0.964743	0.532622	0.388785
	H9119	H	0.980250	0.532052	0.381063
	Al9120	Al	0.934114	-0.499260	0.586077
	Al9121	Al	0.934136	-0.248492	0.586085
	Al9122	Al	0.878471	-0.251954	0.476380
	Al9123	Al	0.878472	-0.502754	0.476497
	O9124	O	0.943339	-0.457485	0.606728
	O9125	O	0.934428	-0.373872	0.571100
	O9126	O	0.934018	-0.123790	0.600935
	O9127	O	0.987828	-0.458822	0.623152
	O9128	O	0.924636	-0.458785	0.604385
	O9129	O	0.880946	-0.457912	0.628783
	O9130	O	0.924742	-0.290321	0.604816
	O9131	O	0.925285	-0.209235	0.564449
	O9132	O	0.887175	-0.210523	0.498396
	O9133	O	0.943486	-0.289059	0.606242
	O9134	O	0.943472	-0.207519	0.566711
	O9135	O	0.987038	-0.208629	0.541663
	O9136	O	0.881099	-0.289080	0.629298
	O9137	O	0.925398	-0.041183	0.564098
	O9138	O	0.887333	-0.042426	0.497925
	O9139	O	0.987205	-0.040172	0.542305
	O9140	O	0.943583	-0.038852	0.566970
	O9141	O	0.987974	-0.290646	0.622559
	O9142	O	0.871860	-0.124322	0.633320
	O9143	O	0.996490	-0.373569	0.538451
	C9144	C	0.970199	-0.284553	0.614919
	C9145	C	0.974635	-0.374693	0.616691
	C9146	C	0.970000	-0.464266	0.615971
	C9147	C	0.961116	-0.463616	0.613839
	C9148	C	0.956678	-0.373441	0.612254
	C9149	C	0.961323	-0.283955	0.612748
	C9150	C	0.947137	-0.373262	0.608242
	C9151	C	0.984151	-0.374783	0.620983
	C9152	C	0.921006	-0.374523	0.606622
	C9153	C	0.911645	-0.374594	0.611941
	C9154	C	0.907253	-0.284689	0.614183
	C9155	C	0.898511	-0.284474	0.618316
	C9156	C	0.893948	-0.374072	0.620247
	C9157	C	0.898305	-0.464160	0.617525
	C9158	C	0.907057	-0.464212	0.613396
	C9159	C	0.884635	-0.373566	0.626504
	C9160	C	0.922136	-0.125224	0.558777
	C9161	C	0.913991	-0.125468	0.544451
	C9162	C	0.910194	-0.036436	0.537425
	C9163	C	0.902598	-0.036705	0.524400
	C9164	C	0.898591	-0.126011	0.518073
	C9165	C	0.902387	-0.214927	0.525157
	C9166	C	0.909983	-0.214722	0.538177
	C9167	C	0.890468	-0.126407	0.503692
	C9168	C	0.947168	-0.123289	0.564259
	C9169	C	0.956450	-0.123348	0.557965
	C9170	C	0.960801	-0.213357	0.555162
	C9171	C	0.969536	-0.213643	0.550800
	C9172	C	0.974084	-0.124087	0.549260
	C9173	C	0.969737	-0.034226	0.551921
	C9174	C	0.960998	-0.033830	0.556211
	C9175	C	0.983451	-0.124264	0.543989
	H9176	H	0.972852	-0.283139	0.548630
	H9177	H	0.957355	-0.282830	0.556558
	H9178	H	0.973682	-0.214616	0.615319
	H9179	H	0.957960	-0.213787	0.611581
	H9180	H	0.934880	-0.373751	0.555068
	H9181	H	0.933853	-0.123891	0.616985
	H9182	H	0.872447	-0.124713	0.617327
	H9183	H	0.996406	-0.373312	0.554541
	H9184	H	0.912803	-0.283779	0.543718
	H9185	H	0.899352	-0.284115	0.520342
	H9186	H	0.895185	-0.214809	0.620261
	H9187	H	0.910703	-0.215313	0.612855
	H9188	H	0.899774	0.032295	0.518921
	H9189	H	0.913210	0.032599	0.542278
	H9190	H	0.910373	-0.533795	0.611313
	H9191	H	0.894839	-0.533460	0.618760
	H9192	H	0.957593	-0.533364	0.613489
	H9193	H	0.973362	-0.534279	0.617245
	H9194	H	0.957705	0.035911	0.558415
	H9195	H	0.973196	0.035379	0.550580
	Al9196	Al	0.934120	0.000876	0.585992
	Al9197	Al	0.934130	0.251640	0.586035
	Al9198	Al	0.878508	0.248097	0.476347
	Al9199	Al	0.878486	-0.002812	0.476386
	O9200	O	0.943335	0.042798	0.606624
	O9201	O	0.934414	0.126127	0.571093
	O9202	O	0.934072	0.376286	0.600922
	O9203	O	0.987843	0.041543	0.623005
	O9204	O	0.924592	0.041583	0.604242
	O9205	O	0.880929	0.042903	0.628824
	O9206	O	0.924751	0.210018	0.604840
	O9207	O	0.925314	0.291205	0.564296
	O9208	O	0.887136	0.289679	0.498462
	O9209	O	0.943446	0.211150	0.606345
	O9210	O	0.943499	0.292247	0.566721
	O9211	O	0.987071	0.291309	0.541793
	O9212	O	0.881069	0.211324	0.629321
	O9213	O	0.925407	0.459435	0.564053
	O9214	O	0.887270	0.458112	0.498198
	O9215	O	0.987223	0.459925	0.542187
	O9216	O	0.943640	0.460935	0.567129
	O9217	O	0.987945	0.209996	0.622677
	O9218	O	0.871845	0.375562	0.633210
	O9219	O	0.996556	0.126682	0.538586
	C9220	C	0.970194	0.216035	0.614808
	C9221	C	0.974654	0.125947	0.616665
	C9222	C	0.969982	0.036393	0.616246
	C9223	C	0.961114	0.036930	0.614079
	C9224	C	0.956655	0.126954	0.612249
	C9225	C	0.961308	0.216680	0.612620
	C9226	C	0.947141	0.126916	0.608131
	C9227	C	0.984171	0.125820	0.621058
	C9228	C	0.920979	0.125675	0.606535
	C9229	C	0.911611	0.126102	0.611739
	C9230	C	0.907236	0.216049	0.614153
	C9231	C	0.898492	0.216476	0.618386
	C9232	C	0.893920	0.126916	0.620234
	C9233	C	0.898273	0.036952	0.617482
	C9234	C	0.907019	0.036552	0.613231
	C9235	C	0.884638	0.127075	0.626567
	C9236	C	0.922150	0.375116	0.558630
	C9237	C	0.913974	0.374732	0.544388
	C9238	C	0.910160	0.463683	0.537455
	C9239	C	0.902542	0.463299	0.524473
	C9240	C	0.898539	0.374133	0.518164
	C9241	C	0.902330	0.285195	0.525196
	C9242	C	0.909942	0.285506	0.538207
	C9243	C	0.890415	0.373824	0.503781
	C9244	C	0.947178	0.376587	0.564274
	C9245	C	0.956471	0.376552	0.557931
	C9246	C	0.960818	0.286648	0.555109
	C9247	C	0.969555	0.286425	0.550789
	C9248	C	0.974109	0.376344	0.549270
	C9249	C	0.969751	0.466255	0.551856
	C9250	C	0.961014	0.466457	0.556128
	C9251	C	0.983470	0.375544	0.544056
	H9252	H	0.972857	0.216997	0.548737
	H9253	H	0.957354	0.217203	0.556357
	H9254	H	0.973743	0.285536	0.615208
	H9255	H	0.957945	0.286751	0.611260
	H9256	H	0.934774	0.126229	0.555011
	H9257	H	0.934164	0.375818	0.617018
	H9258	H	0.872368	0.375384	0.617219
	H9259	H	0.996614	0.127025	0.554553
	H9260	H	0.912775	0.216383	0.543582
	H9261	H	0.899296	0.215966	0.520459
	H9262	H	0.895193	0.286142	0.620469
	H9263	H	0.910705	0.285564	0.612773
	H9264	H	0.899701	0.531995	0.519005
	H9265	H	0.913177	0.532969	0.542297
	H9266	H	0.910288	-0.033216	0.611161
	H9267	H	0.894801	-0.032677	0.618774
	H9268	H	0.957593	-0.032714	0.613818
	H9269	H	0.973295	-0.033723	0.617697
	H9270	H	0.957716	0.536239	0.558276
	H9271	H	0.973226	0.535657	0.550683
	Al9272	Al	0.934880	-0.499051	0.704754
	Al9273	Al	0.934857	-0.248903	0.704727
	Al9274	Al	0.871598	-0.249658	0.648269
	Al9275	Al	0.871604	-0.499252	0.648294
	O9276	O	0.944288	-0.456896	0.724542
	O9277	O	0.934766	-0.374039	0.689716
	O9278	O	0.934975	-0.124117	0.719986
	O9279	O	0.988800	-0.458843	0.741715
	O9280	O	0.925572	-0.459391	0.724218
	O9281	O	0.881605	-0.458648	0.747591
	O9282	O	0.925713	-0.291030	0.724762
	O9283	O	0.925307	-0.209131	0.685528
	O9284	O	0.880810	-0.207498	0.668783
	O9285	O	0.944441	-0.288716	0.724022
	O9286	O	0.944023	-0.206740	0.684816
	O9287	O	0.988036	-0.208429	0.661864
	O9288	O	0.881699	-0.290057	0.747813
	O9289	O	0.925503	-0.041161	0.685086
	O9290	O	0.880962	-0.039049	0.668334
	O9291	O	0.988164	-0.040209	0.662305
	O9292	O	0.944246	-0.038359	0.685549
	O9293	O	0.988943	-0.290519	0.741071
	O9294	O	0.872263	-0.125281	0.752321
	O9295	O	0.997507	-0.373476	0.657542
	C9296	C	0.971183	-0.284398	0.733614
	C9297	C	0.975636	-0.374505	0.735214
	C9298	C	0.970975	-0.464207	0.734261
	C9299	C	0.962101	-0.463397	0.731901
	C9300	C	0.957637	-0.373287	0.730345
	C9301	C	0.962294	-0.283760	0.731299
	C9302	C	0.948111	-0.373030	0.726200
	C9303	C	0.985142	-0.374657	0.739491
	C9304	C	0.921962	-0.375299	0.726828
	C9305	C	0.912564	-0.374981	0.732357
	C9306	C	0.908136	-0.284906	0.734608
	C9307	C	0.899328	-0.284855	0.738182
	C9308	C	0.894722	-0.374566	0.739752
	C9309	C	0.899168	-0.464517	0.737459
	C9310	C	0.907971	-0.464719	0.733909
	C9311	C	0.885346	-0.374315	0.745400
	C9312	C	0.921662	-0.124825	0.683421
	C9313	C	0.912149	-0.124618	0.679115
	C9314	C	0.907686	-0.034542	0.677459
	C9315	C	0.898807	-0.033994	0.675170
	C9316	C	0.894152	-0.123554	0.674340
	C9317	C	0.898624	-0.213574	0.675902
	C9318	C	0.907508	-0.214213	0.678206
	C9319	C	0.884631	-0.123334	0.670276
	C9320	C	0.947810	-0.122750	0.682853
	C9321	C	0.957192	-0.123359	0.677247
	C9322	C	0.961600	-0.213430	0.674906
	C9323	C	0.970403	-0.213735	0.671371
	C9324	C	0.975030	-0.124075	0.669946
	C9325	C	0.970617	-0.034065	0.672279
	C9326	C	0.961818	-0.033732	0.675849
	C9327	C	0.984414	-0.124376	0.664374
	H9328	H	0.973713	-0.283981	0.669675
	H9329	H	0.958105	-0.283266	0.675941
	H9330	H	0.974695	-0.214677	0.734255
	H9331	H	0.958926	-0.213549	0.730123
	H9332	H	0.934660	-0.373585	0.673629
	H9333	H	0.934996	-0.123582	0.736100
	H9334	H	0.872066	-0.125127	0.736221
	H9335	H	0.997845	-0.373294	0.673615
	H9336	H	0.910865	-0.284342	0.679488
	H9337	H	0.895123	-0.283393	0.675473
	H9338	H	0.896002	-0.214874	0.739687
	H9339	H	0.911617	-0.214987	0.733421
	H9340	H	0.895458	0.036167	0.674129
	H9341	H	0.911188	0.035146	0.678177
	H9342	H	0.911319	-0.534992	0.732168
	H9343	H	0.895702	-0.534448	0.738408
	H9344	H	0.958596	-0.533100	0.731252
	H9345	H	0.974325	-0.534318	0.735349
	H9346	H	0.958495	0.036469	0.677538
	H9347	H	0.974094	0.035665	0.671268
	Al9348	Al	0.934901	0.000803	0.704939
	Al9349	Al	0.934841	0.250925	0.704826
	Al9350	Al	0.871572	0.250330	0.648195
	Al9351	Al	0.871569	0.001050	0.648333
	O9352	O	0.944274	0.043031	0.724930
	O9353	O	0.934771	0.125766	0.689945
	O9354	O	0.934996	0.375802	0.719929
	O9355	O	0.988816	0.041367	0.741371
	O9356	O	0.925492	0.040226	0.724206
	O9357	O	0.881526	0.041649	0.747252
	O9358	O	0.925684	0.208622	0.724728
	O9359	O	0.925297	0.290440	0.685633
	O9360	O	0.880806	0.292508	0.668733
	O9361	O	0.944449	0.211188	0.724158
	O9362	O	0.944019	0.292786	0.684813
	O9363	O	0.987994	0.291554	0.661853
	O9364	O	0.881631	0.210000	0.747605
	O9365	O	0.925492	0.458691	0.685013
	O9366	O	0.880964	0.460760	0.668430
	O9367	O	0.988162	0.459739	0.662430
	O9368	O	0.944186	0.461226	0.685229
	O9369	O	0.988977	0.209446	0.740954
	O9370	O	0.872250	0.374718	0.752199
	O9371	O	0.997495	0.126662	0.657451
	C9372	C	0.971153	0.215734	0.733569
	C9373	C	0.975643	0.125767	0.734976
	C9374	C	0.970963	0.036218	0.734259
	C9375	C	0.962083	0.036830	0.731997
	C9376	C	0.957605	0.126840	0.730580
	C9377	C	0.962275	0.216265	0.731287
	C9378	C	0.948103	0.127066	0.726234
	C9379	C	0.985137	0.125577	0.739421
	C9380	C	0.921913	0.124736	0.726818
	C9381	C	0.912518	0.124988	0.732447
	C9382	C	0.908100	0.214842	0.734700
	C9383	C	0.899298	0.215318	0.738260
	C9384	C	0.894673	0.125847	0.739717
	C9385	C	0.899091	0.035818	0.737385
	C9386	C	0.907896	0.035408	0.733793
	C9387	C	0.885267	0.125844	0.745221
	C9388	C	0.921659	0.374718	0.683543
	C9389	C	0.912145	0.375228	0.679102
	C9390	C	0.907694	0.465208	0.677441
	C9391	C	0.898809	0.465688	0.675132
	C9392	C	0.894144	0.376210	0.674422
	C9393	C	0.898601	0.286188	0.675876
	C9394	C	0.907492	0.285597	0.678192
	C9395	C	0.884632	0.376498	0.670289
	C9396	C	0.947786	0.376951	0.682785
	C9397	C	0.957166	0.376495	0.677204
	C9398	C	0.961560	0.286440	0.674949
	C9399	C	0.970368	0.286149	0.671390
	C9400	C	0.974995	0.375751	0.669976
	C9401	C	0.970593	0.465707	0.672297
	C9402	C	0.961791	0.466025	0.675829
	C9403	C	0.984396	0.375599	0.664394
	H9404	H	0.973697	0.216227	0.669612
	H9405	H	0.958083	0.216285	0.676035
	H9406	H	0.974656	0.285426	0.734214
	H9407	H	0.958938	0.286335	0.730057
	H9408	H	0.934627	0.125609	0.673866
	H9409	H	0.935218	0.376311	0.736037
	H9410	H	0.872091	0.374855	0.735972
	H9411	H	0.997788	0.126601	0.673473
	H9412	H	0.910823	0.215587	0.679375
	H9413	H	0.895083	0.216653	0.675249
	H9414	H	0.895969	0.285390	0.739869
	H9415	H	0.911555	0.284596	0.733598
	H9416	H	0.895493	0.535971	0.673852
	H9417	H	0.911201	0.534959	0.678027
	H9418	H	0.911198	-0.034886	0.732004
	H9419	H	0.895608	-0.033811	0.738227
	H9420	H	0.958565	-0.032863	0.731374
	H9421	H	0.974333	-0.033860	0.735503
	H9422	H	0.958477	0.535976	0.677600
	H9423	H	0.974059	0.535774	0.671239
	Al9424	Al	0.935870	-0.499247	0.823146
	Al9425	Al	0.935883	-0.249331	0.823311
	Al9426	Al	0.872386	-0.250301	0.767290
	Al9427	Al	0.872368	-0.500073	0.767288
	O9428	O	0.945341	-0.457547	0.842762
	O9429	O	0.935759	-0.374120	0.808124
	O9430	O	0.936023	-0.124376	0.838369
	O9431	O	0.989869	-0.459607	0.859592
	O9432	O	0.926543	-0.459172	0.842833
	O9433	O	0.882504	-0.458027	0.865711
	O9434	O	0.926673	-0.290991	0.843148
	O9435	O	0.926369	-0.209142	0.804011
	O9436	O	0.881831	-0.208424	0.786905
	O9437	O	0.945478	-0.289480	0.842462
	O9438	O	0.945116	-0.207482	0.803421
	O9439	O	0.989096	-0.208518	0.780405
	O9440	O	0.882714	-0.289768	0.866137
	O9441	O	0.926437	-0.040861	0.803713
	O9442	O	0.881955	-0.040028	0.786543
	O9443	O	0.989175	-0.040123	0.780580
	O9444	O	0.945195	-0.039307	0.803774
	O9445	O	0.990031	-0.291212	0.858915
	O9446	O	0.873298	-0.125296	0.870670
	O9447	O	0.998562	-0.373228	0.775826
	C9448	C	0.972225	-0.284922	0.851741
	C9449	C	0.976682	-0.375033	0.853331
	C9450	C	0.972023	-0.464614	0.852494
	C9451	C	0.963143	-0.464114	0.850328
	C9452	C	0.958685	-0.373993	0.848763
	C9453	C	0.963339	-0.284396	0.849586
	C9454	C	0.949150	-0.373575	0.844486
	C9455	C	0.986216	-0.375335	0.857487
	C9456	C	0.922912	-0.375033	0.845292
	C9457	C	0.913515	-0.374869	0.850715
	C9458	C	0.909087	-0.284963	0.853069
	C9459	C	0.900282	-0.284707	0.856603
	C9460	C	0.895683	-0.374494	0.858011
	C9461	C	0.900102	-0.464412	0.855579
	C9462	C	0.908909	-0.464583	0.852062
	C9463	C	0.886292	-0.374251	0.863548
	C9464	C	0.922661	-0.125251	0.801950
	C9465	C	0.913142	-0.125330	0.797682
	C9466	C	0.908676	-0.035302	0.795970
	C9467	C	0.899797	-0.034849	0.793619
	C9468	C	0.895149	-0.124349	0.792863
	C9469	C	0.899608	-0.214445	0.794539
	C9470	C	0.908484	-0.214897	0.796856
	C9471	C	0.885626	-0.124212	0.788600
	C9472	C	0.948839	-0.123378	0.801284
	C9473	C	0.958222	-0.123549	0.795654
	C9474	C	0.962626	-0.213675	0.793225
	C9475	C	0.971434	-0.213995	0.789594
	C9476	C	0.976055	-0.124360	0.788257
	C9477	C	0.971655	-0.034387	0.790796
	C9478	C	0.962852	-0.034048	0.794440
	C9479	C	0.985451	-0.124440	0.782709
	H9480	H	0.974761	-0.284225	0.787718
	H9481	H	0.959134	-0.283284	0.794179
	H9482	H	0.975739	-0.215189	0.852184
	H9483	H	0.959982	-0.214252	0.848443
	H9484	H	0.935626	-0.374094	0.791977
	H9485	H	0.936175	-0.124366	0.854469
	H9486	H	0.873157	-0.124843	0.854604
	H9487	H	0.998879	-0.372995	0.791903
	H9488	H	0.911842	-0.285035	0.798275
	H9489	H	0.896087	-0.284094	0.794144
	H9490	H	0.896947	-0.214703	0.858371
	H9491	H	0.912563	-0.214957	0.852279
	H9492	H	0.896444	0.035097	0.792588
	H9493	H	0.912189	0.034408	0.796646
	H9494	H	0.912246	-0.534650	0.850437
	H9495	H	0.896626	-0.534463	0.856568
	H9496	H	0.959638	-0.534249	0.849810
	H9497	H	0.975376	-0.534897	0.853597
	H9498	H	0.959575	0.036112	0.796360
	H9499	H	0.975130	0.035715	0.789922
	Al9500	Al	0.935873	0.000724	0.823301
	Al9501	Al	0.935881	0.250897	0.823255
	Al9502	Al	0.872362	0.249955	0.767242
	Al9503	Al	0.872387	-0.000268	0.767366
	O9504	O	0.945313	0.042890	0.843005
	O9505	O	0.935759	0.125663	0.808251
	O9506	O	0.936054	0.376060	0.838293
	O9507	O	0.989867	0.041198	0.859501
	O9508	O	0.926558	0.040708	0.843020
	O9509	O	0.882545	0.042089	0.865643
	O9510	O	0.926703	0.208916	0.843271
	O9511	O	0.926282	0.290581	0.804163
	O9512	O	0.881803	0.291405	0.786950
	O9513	O	0.945467	0.211320	0.842489
	O9514	O	0.945050	0.292306	0.803176
	O9515	O	0.989087	0.291194	0.780314
	O9516	O	0.882734	0.210228	0.866244
	O9517	O	0.926429	0.458883	0.803655
	O9518	O	0.881920	0.459763	0.786641
	O9519	O	0.989248	0.459591	0.781017
	O9520	O	0.945176	0.460616	0.803516
	O9521	O	0.990018	0.209307	0.859026
	O9522	O	0.873265	0.374765	0.870667
	O9523	O	0.998545	0.126209	0.775738
	C9524	C	0.972209	0.215627	0.851584
	C9525	C	0.976672	0.125514	0.853295
	C9526	C	0.972009	0.035877	0.852550
	C9527	C	0.963113	0.036450	0.850395
	C9528	C	0.958654	0.126716	0.848665
	C9529	C	0.963332	0.216307	0.849380
	C9530	C	0.949127	0.126932	0.844534
	C9531	C	0.986187	0.125264	0.857480
	C9532	C	0.922950	0.124823	0.845258
	C9533	C	0.913559	0.125182	0.850843
	C9534	C	0.909148	0.215223	0.853205
	C9535	C	0.900335	0.215468	0.856785
	C9536	C	0.895712	0.125743	0.858069
	C9537	C	0.900120	0.035696	0.855691
	C9538	C	0.908923	0.035476	0.852100
	C9539	C	0.886321	0.126084	0.863786
	C9540	C	0.922618	0.374984	0.802113
	C9541	C	0.913106	0.375018	0.797757
	C9542	C	0.908635	0.465093	0.796122
	C9543	C	0.899750	0.465453	0.793795
	C9544	C	0.895104	0.375782	0.792995
	C9545	C	0.899577	0.285763	0.794475
	C9546	C	0.908465	0.285443	0.796832
	C9547	C	0.885601	0.375670	0.788604
	C9548	C	0.948800	0.376647	0.801018
	C9549	C	0.958200	0.376486	0.795544
	C9550	C	0.962606	0.286482	0.793137
	C9551	C	0.971411	0.286112	0.789666
	C9552	C	0.976069	0.375614	0.788445
	C9553	C	0.971641	0.465618	0.790713
	C9554	C	0.962840	0.466114	0.794209
	C9555	C	0.985478	0.375510	0.782939
	H9556	H	0.974731	0.216027	0.787885
	H9557	H	0.959136	0.216579	0.794062
	H9558	H	0.975733	0.285322	0.851901
	H9559	H	0.959967	0.286349	0.848070
	H9560	H	0.935604	0.125277	0.792163
	H9561	H	0.936346	0.375728	0.854380
	H9562	H	0.873189	0.374666	0.854559
	H9563	H	0.998773	0.125790	0.791825
	H9564	H	0.911818	0.215369	0.798027
	H9565	H	0.896088	0.215774	0.793802
	H9566	H	0.897033	0.285427	0.858618
	H9567	H	0.912605	0.285316	0.852242
	H9568	H	0.896388	0.535512	0.792623
	H9569	H	0.912139	0.535071	0.796737
	H9570	H	0.912232	-0.034654	0.850203
	H9571	H	0.896652	-0.034167	0.856680
	H9572	H	0.959594	-0.033149	0.849885
	H9573	H	0.975379	-0.034363	0.853674
	H9574	H	0.959503	0.536024	0.796039
	H9575	H	0.975131	0.535541	0.789810
	Al9576	Al	0.936950	-0.499245	0.941014
	Al9577	Al	0.936948	-0.249068	0.941105
	Al9578	Al	0.873398	-0.250006	0.885752
	Al9579	Al	0.873334	-0.500084	0.885674
	O9580	O	0.946381	-0.457254	0.960559
	O9581	O	0.936800	-0.374000	0.925991
	O9582	O	0.937045	-0.123888	0.956115
	O9583	O	0.990880	-0.458880	0.977396
	O9584	O	0.927625	-0.459193	0.960518
	O9585	O	0.883619	-0.458407	0.983280
	O9586	O	0.927816	-0.290904	0.961150
	O9587	O	0.927350	-0.209185	0.921770
	O9588	O	0.882822	-0.208052	0.905518
	O9589	O	0.946509	-0.288896	0.960328
	O9590	O	0.946121	-0.207468	0.921167
	O9591	O	0.990087	-0.209125	0.898007
	O9592	O	0.883780	-0.290198	0.983895
	O9593	O	0.927525	-0.041225	0.921282
	O9594	O	0.882954	-0.039756	0.904782
	O9595	O	0.990344	-0.041119	0.898814
	O9596	O	0.946299	-0.039250	0.921626
	O9597	O	0.991057	-0.290467	0.976850
	O9598	O	0.874334	-0.125566	0.988274
	O9599	O	0.999593	-0.373948	0.893711
	C9600	C	0.973271	-0.284363	0.969446
	C9601	C	0.977718	-0.374528	0.971209
	C9602	C	0.973057	-0.464282	0.970645
	C9603	C	0.964156	-0.463734	0.968380
	C9604	C	0.959703	-0.373581	0.966638
	C9605	C	0.964373	-0.283840	0.967204
	C9606	C	0.950195	-0.373188	0.962222
	C9607	C	0.987221	-0.374653	0.975363
	C9608	C	0.924041	-0.374972	0.963094
	C9609	C	0.914653	-0.374544	0.968670
	C9610	C	0.910231	-0.284724	0.971046
	C9611	C	0.901427	-0.284413	0.974628
	C9612	C	0.896798	-0.374174	0.975816
	C9613	C	0.901236	-0.463942	0.973450
	C9614	C	0.910041	-0.464297	0.969883
	C9615	C	0.887396	-0.374289	0.981308
	C9616	C	0.923679	-0.125086	0.919882
	C9617	C	0.914158	-0.124740	0.915587
	C9618	C	0.909687	-0.034824	0.913914
	C9619	C	0.900808	-0.034577	0.911762
	C9620	C	0.896143	-0.124166	0.911179
	C9621	C	0.900613	-0.214136	0.912856
	C9622	C	0.909491	-0.214391	0.914999
	C9623	C	0.886643	-0.123858	0.906840
	C9624	C	0.949893	-0.123444	0.919046
	C9625	C	0.959274	-0.123748	0.913411
	C9626	C	0.963696	-0.213782	0.911095
	C9627	C	0.972491	-0.214102	0.907524
	C9628	C	0.977115	-0.124462	0.906114
	C9629	C	0.972687	-0.034505	0.908461
	C9630	C	0.963891	-0.034106	0.912008
	C9631	C	0.986516	-0.124704	0.900631
	H9632	H	0.975811	-0.284400	0.905969
	H9633	H	0.960227	-0.283638	0.912215
	H9634	H	0.976776	-0.214381	0.969949
	H9635	H	0.961011	-0.213585	0.965857
	H9636	H	0.936503	-0.373226	0.909947
	H9637	H	0.937338	-0.123814	0.972172
	H9638	H	0.874227	-0.125576	0.972174
	H9639	H	0.999813	-0.373419	0.909872
	H9640	H	0.912870	-0.284384	0.916291
	H9641	H	0.897087	-0.284002	0.912435
	H9642	H	0.898148	-0.214097	0.976478
	H9643	H	0.913709	-0.214825	0.970202
	H9644	H	0.897446	0.035548	0.910433
	H9645	H	0.913200	0.034968	0.914327
	H9646	H	0.913337	-0.534681	0.968074
	H9647	H	0.897750	-0.533677	0.974464
	H9648	H	0.960684	-0.533904	0.968033
	H9649	H	0.976396	-0.534417	0.972024
	H9650	H	0.960570	0.036050	0.913839
	H9651	H	0.976182	0.035158	0.907635
	Al9652	Al	0.936953	0.000896	0.940986
	Al9653	Al	0.936938	0.250748	0.940940
	Al9654	Al	0.873371	0.249724	0.885699
	Al9655	Al	0.873378	-0.000280	0.885701
	O9656	O	0.946353	0.042549	0.960719
	O9657	O	0.936877	0.125596	0.925844
	O9658	O	0.937005	0.375911	0.956121
	O9659	O	0.990891	0.040506	0.977476
	O9660	O	0.927644	0.040886	0.960532
	O9661	O	0.883609	0.041230	0.983333
	O9662	O	0.927775	0.209155	0.961083
	O9663	O	0.927375	0.290747	0.921763
	O9664	O	0.882768	0.292368	0.905461
	O9665	O	0.946536	0.210937	0.960080
	O9666	O	0.946122	0.292383	0.921034
	O9667	O	0.990155	0.290752	0.898262
	O9668	O	0.883773	0.209514	0.984003
	O9669	O	0.927460	0.459037	0.921568
	O9670	O	0.882938	0.460667	0.904807
	O9671	O	0.990316	0.459068	0.898749
	O9672	O	0.946269	0.460721	0.921457
	O9673	O	0.991076	0.208732	0.976714
	O9674	O	0.874307	0.374592	0.988370
	O9675	O	0.999598	0.126156	0.893712
	C9676	C	0.973241	0.215584	0.969400
	C9677	C	0.977707	0.125471	0.971224
	C9678	C	0.973052	0.035845	0.970675
	C9679	C	0.964170	0.036008	0.968346
	C9680	C	0.959703	0.126077	0.966524
	C9681	C	0.964369	0.215676	0.967076
	C9682	C	0.950181	0.126503	0.962216
	C9683	C	0.987227	0.124955	0.975437
	C9684	C	0.924034	0.125029	0.963200
	C9685	C	0.914642	0.124745	0.968759
	C9686	C	0.910208	0.214803	0.971020
	C9687	C	0.901389	0.215030	0.974534
	C9688	C	0.896778	0.125284	0.975942
	C9689	C	0.901214	0.035403	0.973674
	C9690	C	0.910026	0.035155	0.970165
	C9691	C	0.887369	0.125280	0.981326
	C9692	C	0.923692	0.374898	0.919770
	C9693	C	0.914151	0.374947	0.915661
	C9694	C	0.909686	0.465283	0.914116
	C9695	C	0.900793	0.465783	0.911965
	C9696	C	0.896132	0.376105	0.911147
	C9697	C	0.900591	0.285925	0.912852
	C9698	C	0.909482	0.285365	0.914976
	C9699	C	0.886588	0.376490	0.906896
	C9700	C	0.949894	0.376630	0.919003
	C9701	C	0.959280	0.376296	0.913539
	C9702	C	0.963691	0.286188	0.911188
	C9703	C	0.972501	0.285828	0.907671
	C9704	C	0.977144	0.375510	0.906269
	C9705	C	0.972725	0.465659	0.908707
	C9706	C	0.963913	0.466105	0.912222
	C9707	C	0.986536	0.374995	0.900725
	H9708	H	0.975808	0.215749	0.905953
	H9709	H	0.960215	0.216145	0.912127
	H9710	H	0.976747	0.285492	0.969736
	H9711	H	0.961014	0.285830	0.965644
	H9712	H	0.936872	0.126125	0.909744
	H9713	H	0.937204	0.376318	0.972144
	H9714	H	0.873945	0.374663	0.972289
	H9715	H	0.999878	0.126041	0.909829
	H9716	H	0.912845	0.215220	0.916166
	H9717	H	0.897079	0.216432	0.912537
	H9718	H	0.898042	0.285131	0.976188
	H9719	H	0.913658	0.284680	0.969995
	H9720	H	0.897419	0.535880	0.910901
	H9721	H	0.913202	0.535230	0.914587
	H9722	H	0.913361	-0.034759	0.968524
	H9723	H	0.897774	-0.034523	0.974642
	H9724	H	0.960664	-0.033815	0.967914
	H9725	H	0.976396	-0.034255	0.972003
	H9726	H	0.960592	0.536250	0.914033
	H9727	H	0.976226	0.535551	0.907731
