data_Molecule from HDF5

_cell_length_a		157.268363
_cell_length_b		13.338692
_cell_length_c		50.350220
_cell_angle_alpha	89.989562
_cell_angle_beta	90.009351
_cell_angle_gamma	89.639128
_symmetry_space_group_name_H-M	'P 1'
_symmetry_Int_Tables_number		1

loop_
	_symmetry_equiv_pos_as_xyz
	x,y,z

loop_
	_atom_site_label
	_atom_site_type_symbol
	_atom_site_fract_x
	_atom_site_fract_y
	_atom_site_fract_z
	Al0	Al	0.062466	-0.502059	0.062450
	Al1	Al	0.062482	-0.251898	0.062585
	Al2	Al	0.000010	-0.253229	0.000129
	Al3	Al	-0.000004	-0.503354	0.000059
	O4	O	0.071835	-0.462233	0.084409
	O5	O	0.062512	-0.377132	0.045456
	O6	O	0.062512	-0.126753	0.079574
	O7	O	0.115837	-0.457714	0.102329
	O8	O	0.053373	-0.460173	0.085201
	O9	O	0.009350	-0.463217	0.103086
	O10	O	0.053165	-0.291831	0.084406
	O11	O	0.053342	-0.210333	0.039965
	O12	O	0.009306	-0.213439	0.022221
	O13	O	0.071594	-0.294030	0.085289
	O14	O	0.071862	-0.212060	0.040616
	O15	O	0.115900	-0.207619	0.022722
	O16	O	0.009145	-0.294748	0.102337
	O17	O	0.053174	-0.042007	0.040328
	O18	O	0.009133	-0.045144	0.022820
	O19	O	0.115650	-0.039369	0.021886
	O20	O	0.071639	-0.043466	0.039947
	O21	O	0.115611	-0.289356	0.103245
	O22	O	-0.000020	-0.128017	0.108121
	O23	O	0.124975	-0.374950	0.016995
	C24	C	0.097984	-0.285308	0.095555
	C25	C	0.102642	-0.374742	0.095946
	C26	C	0.098260	-0.465367	0.094113
	C27	C	0.089475	-0.466415	0.091925
	C28	C	0.084823	-0.376850	0.091491
	C29	C	0.089195	-0.286256	0.093384
	C30	C	0.075413	-0.377822	0.086836
	C31	C	0.112023	-0.373801	0.100790
	C32	C	0.049572	-0.376214	0.086863
	C33	C	0.040150	-0.376937	0.091456
	C34	C	0.035537	-0.287077	0.092156
	C35	C	0.026738	-0.287625	0.094301
	C36	C	0.022342	-0.378072	0.096042
	C37	C	0.026958	-0.467893	0.095340
	C38	C	0.035748	-0.467315	0.093188
	C39	C	0.012927	-0.378748	0.100748
	C40	C	0.049567	-0.126346	0.038126
	C41	C	0.040166	-0.126671	0.033576
	C42	C	0.035549	-0.036966	0.032891
	C43	C	0.026752	-0.037814	0.030705
	C44	C	0.022329	-0.128254	0.029117
	C45	C	0.026961	-0.217868	0.029709
	C46	C	0.035745	-0.216994	0.031822
	C47	C	0.012925	-0.128980	0.024470
	C48	C	0.075450	-0.127544	0.038234
	C49	C	0.084855	-0.126543	0.033513
	C50	C	0.089504	-0.216246	0.033018
	C51	C	0.098295	-0.215524	0.030844
	C52	C	0.102678	-0.125068	0.028944
	C53	C	0.098051	-0.035337	0.029546
	C54	C	0.089247	-0.036101	0.031691
	C55	C	0.112081	-0.123914	0.024301
	H56	H	0.101815	-0.285039	0.030586
	H57	H	0.086240	-0.286901	0.034382
	H58	H	0.101277	-0.214800	0.096982
	H59	H	0.085713	-0.216535	0.093038
	H60	H	0.062597	-0.377222	0.027134
	H61	H	0.062514	-0.126811	0.097926
	H62	H	0.000029	-0.128341	0.089762
	H63	H	0.124945	-0.375055	0.035361
	H64	H	0.039239	-0.286924	0.032155
	H65	H	0.023660	-0.288236	0.028562
	H66	H	0.023236	-0.217825	0.094505
	H67	H	0.038845	-0.216594	0.090856
	H68	H	0.023247	0.032082	0.030321
	H69	H	0.038852	0.033543	0.034103
	H70	H	0.039210	-0.537378	0.092681
	H71	H	0.023646	-0.538445	0.096377
	H72	H	0.086184	-0.537192	0.090468
	H73	H	0.101765	-0.535577	0.094425
	H74	H	0.085724	0.033487	0.032023
	H75	H	0.101335	0.035209	0.028256
	Al76	Al	0.062500	-0.001991	0.062452
	Al77	Al	0.062474	0.247913	0.062323
	Al78	Al	-0.000011	0.246459	-0.000024
	Al79	Al	-0.000034	-0.003345	0.000234
	O80	O	0.071802	0.037996	0.084446
	O81	O	0.062513	0.123395	0.045281
	O82	O	0.062533	0.372834	0.079492
	O83	O	0.115868	0.042458	0.102215
	O84	O	0.053333	0.039345	0.085101
	O85	O	0.009335	0.036562	0.103017
	O86	O	0.053163	0.207708	0.084443
	O87	O	0.053326	0.289416	0.039827
	O88	O	0.009288	0.286875	0.022124
	O89	O	0.071626	0.206376	0.085202
	O90	O	0.071824	0.287721	0.040366
	O91	O	0.115865	0.291652	0.022670
	O92	O	0.009152	0.204999	0.102334
	O93	O	0.053155	0.457972	0.040528
	O94	O	0.009112	0.455258	0.022728
	O95	O	0.115654	0.459953	0.021997
	O96	O	0.071618	0.456181	0.039680
	O97	O	0.115584	0.210810	0.103432
	O98	O	-0.000031	0.371623	0.108077
	O99	O	0.124946	0.124945	0.017019
	C100	C	0.097983	0.215060	0.095578
	C101	C	0.102640	0.125362	0.096126
	C102	C	0.098290	0.034734	0.094292
	C103	C	0.089496	0.033582	0.092081
	C104	C	0.084821	0.123151	0.091492
	C105	C	0.089190	0.213795	0.093369
	C106	C	0.075412	0.122389	0.086868
	C107	C	0.112051	0.126319	0.100703
	C108	C	0.049558	0.123436	0.086872
	C109	C	0.040161	0.122991	0.091691
	C110	C	0.035532	0.212778	0.092221
	C111	C	0.026737	0.212026	0.094267
	C112	C	0.022342	0.121553	0.096022
	C113	C	0.026970	0.031781	0.095429
	C114	C	0.035769	0.032484	0.093320
	C115	C	0.012926	0.120824	0.100682
	C116	C	0.049547	0.373690	0.038185
	C117	C	0.040128	0.372971	0.033544
	C118	C	0.035490	0.462716	0.033000
	C119	C	0.026672	0.462124	0.030861
	C120	C	0.022303	0.371567	0.029062
	C121	C	0.026926	0.281795	0.029770
	C122	C	0.035726	0.282523	0.031859
	C123	C	0.012899	0.371142	0.024432
	C124	C	0.075415	0.372239	0.037999
	C125	C	0.084811	0.372780	0.033455
	C126	C	0.089465	0.283087	0.033048
	C127	C	0.098269	0.284141	0.031021
	C128	C	0.102642	0.374919	0.029075
	C129	C	0.097971	0.464502	0.029458
	C130	C	0.089179	0.463521	0.031613
	C131	C	0.112063	0.375673	0.024325
	H132	H	0.101790	0.214283	0.030842
	H133	H	0.086160	0.212608	0.034328
	H134	H	0.101260	0.285789	0.096848
	H135	H	0.085687	0.283463	0.093134
	H136	H	0.062628	0.122668	0.026961
	H137	H	0.062694	0.372907	0.097869
	H138	H	-0.000163	0.371232	0.089721
	H139	H	0.124833	0.124701	0.035332
	H140	H	0.039202	0.212152	0.032160
	H141	H	0.023635	0.211264	0.028507
	H142	H	0.023269	0.281917	0.094573
	H143	H	0.038851	0.283212	0.090974
	H144	H	0.023188	0.532068	0.030485
	H145	H	0.038798	0.533559	0.034190
	H146	H	0.039253	-0.037496	0.092877
	H147	H	0.023646	-0.038500	0.096599
	H148	H	0.086216	-0.037179	0.090910
	H149	H	0.101809	-0.034893	0.094699
	H150	H	0.085666	0.533553	0.031833
	H151	H	0.101250	0.534888	0.028103
	Al152	Al	0.062511	-0.501754	0.187767
	Al153	Al	0.062484	-0.251648	0.187734
	Al154	Al	-0.000000	-0.252929	0.125076
	Al155	Al	0.000012	-0.503219	0.125042
	O156	O	0.071893	-0.461996	0.209523
	O157	O	0.062473	-0.376544	0.170710
	O158	O	0.062485	-0.126659	0.204713
	O159	O	0.115915	-0.457371	0.227170
	O160	O	0.053358	-0.459710	0.210373
	O161	O	0.009361	-0.463371	0.228112
	O162	O	0.053146	-0.291283	0.209651
	O163	O	0.053377	-0.209562	0.164909
	O164	O	0.009349	-0.213314	0.147005
	O165	O	0.071604	-0.293574	0.210527
	O166	O	0.071847	-0.211953	0.165670
	O167	O	0.115887	-0.207682	0.147798
	O168	O	0.009111	-0.295089	0.227451
	O169	O	0.053162	-0.041435	0.165694
	O170	O	0.009131	-0.045001	0.148001
	O171	O	0.115628	-0.039415	0.146856
	O172	O	0.071650	-0.043610	0.164971
	O173	O	0.115631	-0.288987	0.228389
	O174	O	-0.000005	-0.127901	0.233120
	O175	O	0.124976	-0.374569	0.142000
	C176	C	0.098005	-0.284981	0.220588
	C177	C	0.102666	-0.374523	0.221105
	C178	C	0.098282	-0.465226	0.219309
	C179	C	0.089491	-0.466291	0.217151
	C180	C	0.084842	-0.376611	0.216623
	C181	C	0.089217	-0.286111	0.218492
	C182	C	0.075440	-0.377268	0.212023
	C183	C	0.112067	-0.373459	0.225821
	C184	C	0.049553	-0.375697	0.211956
	C185	C	0.040147	-0.376510	0.216650
	C186	C	0.035526	-0.286801	0.217476
	C187	C	0.026729	-0.287537	0.219572
	C188	C	0.022344	-0.378022	0.221118
	C189	C	0.026959	-0.467751	0.220413
	C190	C	0.035759	-0.467003	0.218327
	C191	C	0.012917	-0.379097	0.225727
	C192	C	0.049570	-0.125731	0.163263
	C193	C	0.040161	-0.126793	0.158691
	C194	C	0.035516	-0.037062	0.157991
	C195	C	0.026719	-0.037848	0.155898
	C196	C	0.022328	-0.128316	0.154156
	C197	C	0.026971	-0.218095	0.154782
	C198	C	0.035772	-0.217360	0.156912
	C199	C	0.012939	-0.128908	0.149511
	C200	C	0.075428	-0.127580	0.163206
	C201	C	0.084826	-0.126981	0.158527
	C202	C	0.089477	-0.216388	0.158074
	C203	C	0.098261	-0.215263	0.155889
	C204	C	0.102650	-0.124632	0.154014
	C205	C	0.097988	-0.035167	0.154505
	C206	C	0.089196	-0.036323	0.156698
	C207	C	0.112056	-0.123934	0.149387
	H208	H	0.101749	-0.285259	0.155659
	H209	H	0.086156	-0.286850	0.159459
	H210	H	0.101280	-0.214102	0.221874
	H211	H	0.085704	-0.216303	0.218156
	H212	H	0.062463	-0.377150	0.152302
	H213	H	0.062561	-0.126200	0.223153
	H214	H	-0.000060	-0.127598	0.214729
	H215	H	0.125129	-0.374379	0.160395
	H216	H	0.039260	-0.287192	0.157328
	H217	H	0.023674	-0.288723	0.153655
	H218	H	0.023235	-0.217590	0.220070
	H219	H	0.038838	-0.216388	0.216382
	H220	H	0.023217	0.032031	0.155629
	H221	H	0.038810	0.033525	0.159214
	H222	H	0.039249	-0.537017	0.217893
	H223	H	0.023662	-0.538308	0.221551
	H224	H	0.086194	-0.536776	0.215761
	H225	H	0.101829	-0.534854	0.219577
	H226	H	0.085681	0.033656	0.157019
	H227	H	0.101286	0.035157	0.153168
	Al228	Al	0.062521	-0.001863	0.187611
	Al229	Al	0.062476	0.248574	0.187735
	Al230	Al	0.000018	0.246982	0.125144
	Al231	Al	0.000023	-0.002990	0.125097
	O232	O	0.071861	0.037656	0.209480
	O233	O	0.062490	0.123499	0.170643
	O234	O	0.062506	0.373489	0.204830
	O235	O	0.115862	0.042329	0.227377
	O236	O	0.053398	0.039898	0.210438
	O237	O	0.009371	0.036137	0.228432
	O238	O	0.053150	0.208365	0.209692
	O239	O	0.053354	0.290318	0.165010
	O240	O	0.009335	0.286719	0.147144
	O241	O	0.071620	0.206183	0.210391
	O242	O	0.071882	0.287683	0.166014
	O243	O	0.115838	0.292359	0.147842
	O244	O	0.009133	0.204332	0.227401
	O245	O	0.053146	0.458655	0.165725
	O246	O	0.009134	0.454857	0.147651
	O247	O	0.115601	0.460622	0.147016
	O248	O	0.071607	0.455950	0.165017
	O249	O	0.115620	0.210660	0.228323
	O250	O	0.000016	0.372166	0.232950
	O251	O	0.124969	0.125041	0.142066
	C252	C	0.097988	0.214804	0.220561
	C253	C	0.102649	0.125162	0.221241
	C254	C	0.098288	0.034565	0.219369
	C255	C	0.089494	0.033536	0.217144
	C256	C	0.084832	0.123088	0.216563
	C257	C	0.089191	0.213837	0.218369
	C258	C	0.075436	0.122110	0.211930
	C259	C	0.112044	0.126264	0.225809
	C260	C	0.049580	0.123705	0.212028
	C261	C	0.040169	0.123257	0.216635
	C262	C	0.035518	0.212906	0.217329
	C263	C	0.026728	0.211975	0.219427
	C264	C	0.022333	0.121342	0.221080
	C265	C	0.026981	0.031700	0.220272
	C266	C	0.035766	0.032686	0.218211
	C267	C	0.012938	0.120736	0.225785
	C268	C	0.049545	0.374294	0.163366
	C269	C	0.040145	0.373527	0.158677
	C270	C	0.035523	0.463232	0.157972
	C271	C	0.026732	0.462445	0.155760
	C272	C	0.022347	0.371877	0.154064
	C273	C	0.026966	0.282149	0.154815
	C274	C	0.035758	0.282993	0.156985
	C275	C	0.012942	0.371125	0.149388
	C276	C	0.075423	0.372255	0.163418
	C277	C	0.084821	0.373324	0.158592
	C278	C	0.089464	0.283568	0.158052
	C279	C	0.098259	0.284755	0.155888
	C280	C	0.102628	0.375340	0.154031
	C281	C	0.097969	0.464934	0.154420
	C282	C	0.089180	0.463874	0.156603
	C283	C	0.112028	0.376075	0.149327
	H284	H	0.101799	0.215067	0.155684
	H285	H	0.086207	0.213119	0.159534
	H286	H	0.101297	0.285518	0.221771
	H287	H	0.085673	0.283696	0.218035
	H288	H	0.062654	0.123804	0.152354
	H289	H	0.062550	0.373174	0.223181
	H290	H	-0.000071	0.372026	0.214616
	H291	H	0.125012	0.124801	0.160375
	H292	H	0.039253	0.213157	0.157410
	H293	H	0.023663	0.211629	0.153574
	H294	H	0.023216	0.281768	0.219969
	H295	H	0.038800	0.283497	0.216340
	H296	H	0.023249	0.532182	0.155252
	H297	H	0.038824	0.533885	0.159123
	H298	H	0.039285	-0.037092	0.217779
	H299	H	0.023683	-0.038809	0.221406
	H300	H	0.086208	-0.037101	0.215856
	H301	H	0.101796	-0.035309	0.219673
	H302	H	0.085664	0.533596	0.157054
	H303	H	0.101245	0.535663	0.153179
	Al304	Al	0.062509	-0.501437	0.312821
	Al305	Al	0.062489	-0.251417	0.312492
	Al306	Al	-0.000008	-0.252762	0.250133
	Al307	Al	0.000007	-0.502852	0.250073
	O308	O	0.071885	-0.461873	0.334595
	O309	O	0.062513	-0.376496	0.295543
	O310	O	0.062554	-0.126563	0.329511
	O311	O	0.115852	-0.457778	0.352365
	O312	O	0.053378	-0.458815	0.335312
	O313	O	0.009336	-0.463017	0.353081
	O314	O	0.053139	-0.290593	0.334391
	O315	O	0.053356	-0.209575	0.289854
	O316	O	0.009316	-0.213240	0.272166
	O317	O	0.071614	-0.293763	0.335173
	O318	O	0.071847	-0.211824	0.290625
	O319	O	0.115879	-0.207492	0.272874
	O320	O	0.009138	-0.294938	0.352318
	O321	O	0.053147	-0.040979	0.290414
	O322	O	0.009095	-0.044842	0.273107
	O323	O	0.115625	-0.038875	0.272111
	O324	O	0.071590	-0.043400	0.289671
	O325	O	0.115642	-0.289419	0.353194
	O326	O	-0.000006	-0.128241	0.357998
	O327	O	0.124980	-0.374740	0.267111
	C328	C	0.098024	-0.285192	0.345431
	C329	C	0.102652	-0.374680	0.346074
	C330	C	0.098277	-0.465290	0.344265
	C331	C	0.089477	-0.466022	0.342040
	C332	C	0.084847	-0.376418	0.341457
	C333	C	0.089227	-0.285896	0.343211
	C334	C	0.075438	-0.377350	0.336918
	C335	C	0.112049	-0.373952	0.350766
	C336	C	0.049574	-0.374963	0.336848
	C337	C	0.040158	-0.376085	0.341468
	C338	C	0.035533	-0.286310	0.342317
	C339	C	0.026734	-0.287170	0.344469
	C340	C	0.022337	-0.377758	0.345931
	C341	C	0.026981	-0.467435	0.345246
	C342	C	0.035772	-0.466595	0.343125
	C343	C	0.012923	-0.378831	0.350588
	C344	C	0.049575	-0.125460	0.288062
	C345	C	0.040150	-0.126152	0.283459
	C346	C	0.035525	-0.036410	0.282768
	C347	C	0.026712	-0.037301	0.280727
	C348	C	0.022332	-0.128115	0.279174
	C349	C	0.026968	-0.217711	0.279905
	C350	C	0.035772	-0.216750	0.281961
	C351	C	0.012902	-0.128892	0.274677
	C352	C	0.075401	-0.127257	0.288067
	C353	C	0.084827	-0.126446	0.283492
	C354	C	0.089471	-0.216169	0.283032
	C355	C	0.098274	-0.215316	0.280988
	C356	C	0.102659	-0.124580	0.279151
	C357	C	0.098010	-0.034866	0.279646
	C358	C	0.089207	-0.035689	0.281771
	C359	C	0.112063	-0.123609	0.274538
	H360	H	0.101784	-0.285129	0.280748
	H361	H	0.086189	-0.286678	0.284342
	H362	H	0.101318	-0.214748	0.346601
	H363	H	0.085759	-0.215675	0.342809
	H364	H	0.062539	-0.376953	0.277152
	H365	H	0.062625	-0.126394	0.347740
	H366	H	0.000154	-0.128042	0.339706
	H367	H	0.124911	-0.374868	0.285439
	H368	H	0.039271	-0.286504	0.282256
	H369	H	0.023707	-0.288560	0.278788
	H370	H	0.023242	-0.217519	0.345010
	H371	H	0.038835	-0.215591	0.341278
	H372	H	0.023200	0.032509	0.280131
	H373	H	0.038807	0.034561	0.283724
	H374	H	0.039257	-0.536506	0.342644
	H375	H	0.023689	-0.538123	0.346378
	H376	H	0.086166	-0.536555	0.340656
	H377	H	0.101753	-0.535227	0.344481
	H378	H	0.085693	0.034042	0.282025
	H379	H	0.101305	0.035771	0.278354
	Al380	Al	0.062490	-0.001424	0.312404
	Al381	Al	0.062479	0.248621	0.312630
	Al382	Al	0.000018	0.247031	0.250001
	Al383	Al	-0.000011	-0.002937	0.250243
	O384	O	0.071855	0.037757	0.334275
	O385	O	0.062488	0.123793	0.295382
	O386	O	0.062485	0.373731	0.329783
	O387	O	0.115890	0.042013	0.352360
	O388	O	0.053351	0.040300	0.335124
	O389	O	0.009356	0.036563	0.353010
	O390	O	0.053163	0.208503	0.334584
	O391	O	0.053381	0.290705	0.289836
	O392	O	0.009414	0.286362	0.271660
	O393	O	0.071612	0.206167	0.335270
	O394	O	0.071858	0.288178	0.290759
	O395	O	0.115859	0.292842	0.272836
	O396	O	0.009119	0.204919	0.352143
	O397	O	0.053136	0.458870	0.290868
	O398	O	0.009167	0.454649	0.272738
	O399	O	0.115574	0.461011	0.271829
	O400	O	0.071604	0.456467	0.289877
	O401	O	0.115676	0.210112	0.352959
	O402	O	-0.000044	0.372122	0.358003
	O403	O	0.124940	0.125555	0.267196
	C404	C	0.098015	0.214631	0.345392
	C405	C	0.102668	0.125080	0.346029
	C406	C	0.098303	0.034540	0.344328
	C407	C	0.089511	0.033753	0.342061
	C408	C	0.084837	0.123246	0.341447
	C409	C	0.089205	0.213776	0.343272
	C410	C	0.075434	0.122229	0.336731
	C411	C	0.112080	0.125972	0.350611
	C412	C	0.049548	0.124254	0.336847
	C413	C	0.040153	0.123695	0.341633
	C414	C	0.035502	0.213144	0.342297
	C415	C	0.026706	0.212273	0.344386
	C416	C	0.022334	0.121624	0.346010
	C417	C	0.026984	0.032072	0.345261
	C418	C	0.035785	0.032954	0.343166
	C419	C	0.012929	0.121084	0.350582
	C420	C	0.049563	0.374508	0.288300
	C421	C	0.040175	0.373734	0.283634
	C422	C	0.035543	0.463210	0.282841
	C423	C	0.026751	0.462158	0.280625
	C424	C	0.022380	0.371515	0.278981
	C425	C	0.027009	0.282136	0.279811
	C426	C	0.035808	0.283204	0.282066
	C427	C	0.012993	0.370825	0.274161
	C428	C	0.075429	0.372689	0.288254
	C429	C	0.084806	0.373471	0.283551
	C430	C	0.089459	0.283980	0.282953
	C431	C	0.098247	0.285004	0.280831
	C432	C	0.102621	0.375546	0.279034
	C433	C	0.097961	0.464968	0.279459
	C434	C	0.089179	0.464103	0.281699
	C435	C	0.112013	0.376429	0.274330
	H436	H	0.101739	0.215249	0.280552
	H437	H	0.086181	0.213483	0.284237
	H438	H	0.101281	0.285315	0.346708
	H439	H	0.085696	0.283279	0.343038
	H440	H	0.062534	0.123679	0.277113
	H441	H	0.062593	0.372913	0.348113
	H442	H	-0.000100	0.372208	0.339734
	H443	H	0.124791	0.125492	0.285518
	H444	H	0.039294	0.213241	0.282730
	H445	H	0.023709	0.211677	0.278749
	H446	H	0.023240	0.282334	0.344830
	H447	H	0.038795	0.283706	0.341201
	H448	H	0.023281	0.532115	0.280228
	H449	H	0.038844	0.534017	0.284127
	H450	H	0.039287	-0.036965	0.342754
	H451	H	0.023655	-0.038501	0.346439
	H452	H	0.086250	-0.037194	0.340834
	H453	H	0.101791	-0.035134	0.344794
	H454	H	0.085658	0.533962	0.282097
	H455	H	0.101276	0.535428	0.278154
	Al456	Al	0.062493	-0.501646	0.437582
	Al457	Al	0.062465	-0.251823	0.437614
	Al458	Al	-0.000022	-0.253208	0.375088
	Al459	Al	0.000019	-0.502826	0.375062
	O460	O	0.071855	-0.462071	0.459397
	O461	O	0.062511	-0.376664	0.420544
	O462	O	0.062508	-0.126624	0.454634
	O463	O	0.115829	-0.458193	0.477227
	O464	O	0.053331	-0.459659	0.460165
	O465	O	0.009301	-0.463261	0.477938
	O466	O	0.053111	-0.291140	0.459473
	O467	O	0.053386	-0.209348	0.414817
	O468	O	0.009351	-0.213239	0.396986
	O469	O	0.071586	-0.293747	0.460338
	O470	O	0.071850	-0.211921	0.415656
	O471	O	0.115852	-0.208527	0.397753
	O472	O	0.009132	-0.294752	0.477483
	O473	O	0.053150	-0.041079	0.415597
	O474	O	0.009123	-0.044928	0.397560
	O475	O	0.115654	-0.039781	0.397001
	O476	O	0.071628	-0.043523	0.414939
	O477	O	0.115624	-0.289868	0.478243
	O478	O	-0.000026	-0.128044	0.483068
	O479	O	0.124962	-0.375184	0.392159
	C480	C	0.097999	-0.285389	0.470472
	C481	C	0.102630	-0.375096	0.471005
	C482	C	0.098248	-0.465830	0.469275
	C483	C	0.089449	-0.466716	0.467135
	C484	C	0.084828	-0.376859	0.466456
	C485	C	0.089205	-0.286284	0.468311
	C486	C	0.075401	-0.377504	0.461884
	C487	C	0.112045	-0.374182	0.475620
	C488	C	0.049523	-0.375692	0.461820
	C489	C	0.040125	-0.376749	0.466554
	C490	C	0.035511	-0.286843	0.467297
	C491	C	0.026722	-0.287427	0.469500
	C492	C	0.022313	-0.377881	0.471028
	C493	C	0.026932	-0.467828	0.470235
	C494	C	0.035724	-0.467211	0.468081
	C495	C	0.012907	-0.378774	0.475684
	C496	C	0.049571	-0.125479	0.413196
	C497	C	0.040156	-0.126311	0.408651
	C498	C	0.035511	-0.036693	0.407795
	C499	C	0.026716	-0.037694	0.405591
	C500	C	0.022329	-0.128179	0.404111
	C501	C	0.026975	-0.217868	0.404777
	C502	C	0.035765	-0.216884	0.406986
	C503	C	0.012923	-0.128832	0.399362
	C504	C	0.075430	-0.127498	0.413216
	C505	C	0.084834	-0.126854	0.408471
	C506	C	0.089487	-0.216537	0.407843
	C507	C	0.098290	-0.215445	0.405740
	C508	C	0.102663	-0.124749	0.404097
	C509	C	0.098015	-0.035050	0.404536
	C510	C	0.089210	-0.036146	0.406634
	C511	C	0.112070	-0.124238	0.399394
	H512	H	0.101776	-0.285261	0.405376
	H513	H	0.086191	-0.286977	0.409142
	H514	H	0.101267	-0.214623	0.471878
	H515	H	0.085694	-0.216385	0.468123
	H516	H	0.062456	-0.376667	0.402166
	H517	H	0.062585	-0.126487	0.472981
	H518	H	0.000033	-0.128483	0.464542
	H519	H	0.125059	-0.375496	0.410419
	H520	H	0.039259	-0.286894	0.407519
	H521	H	0.023698	-0.288689	0.403581
	H522	H	0.023230	-0.217401	0.470124
	H523	H	0.038816	-0.216150	0.466230
	H524	H	0.023223	0.031939	0.405069
	H525	H	0.038794	0.033818	0.408850
	H526	H	0.039251	-0.536946	0.467703
	H527	H	0.023615	-0.538445	0.471439
	H528	H	0.086161	-0.537384	0.466016
	H529	H	0.101739	-0.535352	0.469661
	H530	H	0.085705	0.033811	0.407022
	H531	H	0.101290	0.035575	0.403271
	Al532	Al	0.062482	-0.001719	0.437625
	Al533	Al	0.062511	0.248405	0.437770
	Al534	Al	-0.000043	0.246686	0.374979
	Al535	Al	-0.000028	-0.003207	0.375019
	O536	O	0.071816	0.038000	0.459668
	O537	O	0.062492	0.123617	0.420620
	O538	O	0.062477	0.373344	0.454774
	O539	O	0.115842	0.041729	0.477474
	O540	O	0.053369	0.040533	0.460202
	O541	O	0.009332	0.037080	0.478000
	O542	O	0.053182	0.208668	0.459816
	O543	O	0.053346	0.290251	0.415104
	O544	O	0.009345	0.286334	0.396916
	O545	O	0.071654	0.206258	0.460248
	O546	O	0.071830	0.287876	0.415809
	O547	O	0.115843	0.291642	0.397647
	O548	O	0.009175	0.205344	0.477535
	O549	O	0.053155	0.458668	0.415674
	O550	O	0.009116	0.455047	0.397646
	O551	O	0.115659	0.459960	0.396920
	O552	O	0.071622	0.456454	0.414982
	O553	O	0.115651	0.210034	0.478267
	O554	O	-0.000080	0.371889	0.482956
	O555	O	0.124959	0.125049	0.391978
	C556	C	0.098001	0.214573	0.470471
	C557	C	0.102660	0.125211	0.471000
	C558	C	0.098261	0.034660	0.469363
	C559	C	0.089479	0.033533	0.467104
	C560	C	0.084836	0.122897	0.466428
	C561	C	0.089215	0.213530	0.468260
	C562	C	0.075441	0.122211	0.461877
	C563	C	0.112055	0.125696	0.475850
	C564	C	0.049583	0.124293	0.462009
	C565	C	0.040158	0.123690	0.466557
	C566	C	0.035534	0.213355	0.467371
	C567	C	0.026732	0.212566	0.469500
	C568	C	0.022339	0.121983	0.471014
	C569	C	0.026963	0.032314	0.470212
	C570	C	0.035762	0.033061	0.468143
	C571	C	0.012948	0.121403	0.475641
	C572	C	0.049548	0.374173	0.413299
	C573	C	0.040142	0.373646	0.408590
	C574	C	0.035491	0.463287	0.407760
	C575	C	0.026702	0.462244	0.405523
	C576	C	0.022308	0.371654	0.404030
	C577	C	0.026960	0.281953	0.404706
	C578	C	0.035759	0.282967	0.406942
	C579	C	0.012919	0.370832	0.399260
	C580	C	0.075416	0.372331	0.413366
	C581	C	0.084821	0.373098	0.408593
	C582	C	0.089453	0.283290	0.407963
	C583	C	0.098254	0.284417	0.405800
	C584	C	0.102632	0.375078	0.404024
	C585	C	0.097990	0.464835	0.404639
	C586	C	0.089192	0.463785	0.406816
	C587	C	0.112058	0.375667	0.399373
	H588	H	0.101750	0.214583	0.405374
	H589	H	0.086156	0.212612	0.409154
	H590	H	0.101291	0.285177	0.471701
	H591	H	0.085721	0.283544	0.467832
	H592	H	0.062318	0.123543	0.402261
	H593	H	0.062511	0.373468	0.473019
	H594	H	-0.000157	0.371956	0.464631
	H595	H	0.124903	0.125198	0.410321
	H596	H	0.039250	0.212739	0.407648
	H597	H	0.023646	0.211182	0.403669
	H598	H	0.023267	0.282637	0.470026
	H599	H	0.038865	0.283645	0.466414
	H600	H	0.023215	0.532067	0.405138
	H601	H	0.038802	0.533582	0.409079
	H602	H	0.039220	-0.037150	0.467754
	H603	H	0.023655	-0.038305	0.471306
	H604	H	0.086174	-0.036879	0.465737
	H605	H	0.101756	-0.035199	0.469673
	H606	H	0.085679	0.533715	0.407176
	H607	H	0.101288	0.535433	0.403312
	Al608	Al	0.062493	-0.502301	0.562546
	Al609	Al	0.062478	-0.252197	0.562687
	Al610	Al	-0.000016	-0.253125	0.500177
	Al611	Al	-0.000016	-0.503160	0.500074
	O612	O	0.071858	-0.462521	0.584562
	O613	O	0.062479	-0.377005	0.545634
	O614	O	0.062499	-0.126468	0.579583
	O615	O	0.115859	-0.457795	0.602401
	O616	O	0.053398	-0.459944	0.585434
	O617	O	0.009314	-0.462938	0.603023
	O618	O	0.053156	-0.291600	0.584645
	O619	O	0.053339	-0.209699	0.540152
	O620	O	0.009339	-0.212686	0.522130
	O621	O	0.071606	-0.294154	0.585464
	O622	O	0.071869	-0.212542	0.540780
	O623	O	0.115859	-0.208148	0.522543
	O624	O	0.009131	-0.294877	0.602449
	O625	O	0.053181	-0.041352	0.540506
	O626	O	0.009162	-0.044414	0.522650
	O627	O	0.115660	-0.039901	0.522092
	O628	O	0.071620	-0.044130	0.539781
	O629	O	0.115641	-0.289677	0.603173
	O630	O	-0.000031	-0.128060	0.608164
	O631	O	0.125005	-0.375038	0.516951
	C632	C	0.097994	-0.285326	0.595381
	C633	C	0.102650	-0.374761	0.596070
	C634	C	0.098281	-0.465442	0.594278
	C635	C	0.089481	-0.466604	0.592170
	C636	C	0.084821	-0.377084	0.591731
	C637	C	0.089190	-0.286357	0.593256
	C638	C	0.075422	-0.378066	0.587040
	C639	C	0.112041	-0.374050	0.600795
	C640	C	0.049573	-0.376137	0.587029
	C641	C	0.040169	-0.376805	0.591583
	C642	C	0.035536	-0.287209	0.592383
	C643	C	0.026742	-0.287802	0.594538
	C644	C	0.022326	-0.378197	0.596047
	C645	C	0.026965	-0.467834	0.595237
	C646	C	0.035763	-0.467173	0.593076
	C647	C	0.012936	-0.378746	0.600647
	C648	C	0.049559	-0.125634	0.538289
	C649	C	0.040174	-0.126459	0.533516
	C650	C	0.035553	-0.036803	0.532695
	C651	C	0.026747	-0.037456	0.530560
	C652	C	0.022339	-0.127836	0.529055
	C653	C	0.026965	-0.217609	0.529747
	C654	C	0.035774	-0.216984	0.531963
	C655	C	0.012936	-0.128365	0.524368
	C656	C	0.075427	-0.128011	0.538290
	C657	C	0.084836	-0.126884	0.533553
	C658	C	0.089485	-0.216448	0.532992
	C659	C	0.098287	-0.215458	0.530715
	C660	C	0.102659	-0.124831	0.528930
	C661	C	0.098012	-0.035141	0.529675
	C662	C	0.089215	-0.036224	0.531887
	C663	C	0.112070	-0.124282	0.524275
	H664	H	0.101787	-0.285396	0.530303
	H665	H	0.086188	-0.287205	0.534294
	H666	H	0.101304	-0.214657	0.596646
	H667	H	0.085705	-0.216380	0.592905
	H668	H	0.062629	-0.376880	0.527309
	H669	H	0.062378	-0.126333	0.597920
	H670	H	-0.000052	-0.127798	0.589725
	H671	H	0.124984	-0.375460	0.535378
	H672	H	0.039263	-0.287070	0.532554
	H673	H	0.023665	-0.288245	0.528650
	H674	H	0.023271	-0.217700	0.595043
	H675	H	0.038845	-0.216742	0.591388
	H676	H	0.023282	0.032428	0.530025
	H677	H	0.038827	0.033773	0.533823
	H678	H	0.039239	-0.537260	0.592569
	H679	H	0.023649	-0.538233	0.596265
	H680	H	0.086192	-0.537053	0.590957
	H681	H	0.101753	-0.535440	0.594645
	H682	H	0.085716	0.033816	0.532335
	H683	H	0.101295	0.035527	0.528413
	Al684	Al	0.062514	-0.001743	0.562474
	Al685	Al	0.062475	0.247721	0.562561
	Al686	Al	-0.000033	0.247106	0.500091
	Al687	Al	0.000004	-0.002854	0.499980
	O688	O	0.071880	0.037890	0.584337
	O689	O	0.062497	0.123011	0.545480
	O690	O	0.062491	0.372813	0.579584
	O691	O	0.115884	0.041983	0.602254
	O692	O	0.053345	0.040083	0.585215
	O693	O	0.009328	0.036724	0.603248
	O694	O	0.053149	0.208471	0.584612
	O695	O	0.053314	0.289696	0.539834
	O696	O	0.009286	0.287031	0.522237
	O697	O	0.071621	0.206276	0.585249
	O698	O	0.071824	0.287889	0.540550
	O699	O	0.115874	0.292126	0.522582
	O700	O	0.009098	0.205367	0.602430
	O701	O	0.053141	0.458039	0.540657
	O702	O	0.009143	0.455092	0.522574
	O703	O	0.115656	0.460338	0.522033
	O704	O	0.071615	0.456114	0.539818
	O705	O	0.115626	0.210217	0.603309
	O706	O	-0.000068	0.372165	0.608118
	O707	O	0.124994	0.125085	0.517151
	C708	C	0.098025	0.214763	0.595488
	C709	C	0.102664	0.125100	0.596159
	C710	C	0.098286	0.034538	0.594418
	C711	C	0.089488	0.033699	0.592237
	C712	C	0.084856	0.123416	0.591579
	C713	C	0.089226	0.213891	0.593244
	C714	C	0.075442	0.122467	0.586872
	C715	C	0.112065	0.125857	0.600772
	C716	C	0.049547	0.124095	0.586970
	C717	C	0.040132	0.123492	0.591618
	C718	C	0.035507	0.213176	0.592526
	C719	C	0.026700	0.212519	0.594693
	C720	C	0.022307	0.121951	0.596092
	C721	C	0.026926	0.032264	0.595301
	C722	C	0.035731	0.033041	0.593123
	C723	C	0.012903	0.121207	0.600808
	C724	C	0.049555	0.373791	0.538218
	C725	C	0.040133	0.373450	0.533581
	C726	C	0.035502	0.463121	0.532735
	C727	C	0.026706	0.462126	0.530658
	C728	C	0.022322	0.371432	0.529091
	C729	C	0.026956	0.281882	0.529891
	C730	C	0.035743	0.282803	0.532100
	C731	C	0.012899	0.371182	0.524494
	C732	C	0.075416	0.372229	0.538122
	C733	C	0.084826	0.372838	0.533623
	C734	C	0.089486	0.283435	0.532980
	C735	C	0.098281	0.284547	0.530737
	C736	C	0.102662	0.375308	0.529027
	C737	C	0.097998	0.464704	0.529710
	C738	C	0.089203	0.463580	0.531862
	C739	C	0.112065	0.375996	0.524323
	H740	H	0.101786	0.214563	0.530458
	H741	H	0.086216	0.212795	0.534287
	H742	H	0.101280	0.285680	0.596709
	H743	H	0.085719	0.283971	0.592782
	H744	H	0.062544	0.122911	0.527156
	H745	H	0.062558	0.373115	0.597850
	H746	H	-0.000128	0.371848	0.589725
	H747	H	0.125055	0.124889	0.535509
	H748	H	0.039228	0.212889	0.532583
	H749	H	0.023642	0.211330	0.528662
	H750	H	0.023213	0.282384	0.595350
	H751	H	0.038796	0.283657	0.591465
	H752	H	0.023236	0.531945	0.530100
	H753	H	0.038825	0.533578	0.533726
	H754	H	0.039212	-0.037006	0.592606
	H755	H	0.023636	-0.038212	0.596333
	H756	H	0.086231	-0.037171	0.591096
	H757	H	0.101810	-0.035234	0.594840
	H758	H	0.085693	0.533251	0.532325
	H759	H	0.101302	0.535382	0.528554
	Al760	Al	0.062503	-0.501374	0.687615
	Al761	Al	0.062479	-0.251436	0.687546
	Al762	Al	0.000006	-0.252900	0.625144
	Al763	Al	-0.000018	-0.502800	0.625110
	O764	O	0.071804	-0.461802	0.709558
	O765	O	0.062497	-0.376569	0.670556
	O766	O	0.062518	-0.126467	0.704594
	O767	O	0.115873	-0.457590	0.727276
	O768	O	0.053356	-0.459646	0.710274
	O769	O	0.009347	-0.463429	0.728076
	O770	O	0.053163	-0.291213	0.709447
	O771	O	0.053361	-0.209679	0.665040
	O772	O	0.009299	-0.213096	0.647133
	O773	O	0.071645	-0.293437	0.710145
	O774	O	0.071839	-0.212117	0.665438
	O775	O	0.115861	-0.208221	0.647649
	O776	O	0.009133	-0.295113	0.727376
	O777	O	0.053156	-0.041232	0.665444
	O778	O	0.009143	-0.044795	0.647827
	O779	O	0.115674	-0.039773	0.647018
	O780	O	0.071624	-0.043690	0.664957
	O781	O	0.115632	-0.289028	0.727906
	O782	O	-0.000010	-0.127806	0.732955
	O783	O	0.125015	-0.374970	0.642130
	C784	C	0.098023	-0.284949	0.720317
	C785	C	0.102655	-0.374680	0.721004
	C786	C	0.098288	-0.465338	0.719352
	C787	C	0.089485	-0.466185	0.717177
	C788	C	0.084841	-0.376527	0.716487
	C789	C	0.089227	-0.285947	0.718189
	C790	C	0.075430	-0.377530	0.711859
	C791	C	0.112053	-0.373662	0.725613
	C792	C	0.049574	-0.375652	0.711877
	C793	C	0.040162	-0.376422	0.716558
	C794	C	0.035541	-0.286753	0.717404
	C795	C	0.026735	-0.287519	0.719504
	C796	C	0.022338	-0.378180	0.720996
	C797	C	0.026977	-0.467833	0.720356
	C798	C	0.035787	-0.467107	0.718279
	C799	C	0.012924	-0.379045	0.725689
	C800	C	0.049557	-0.125721	0.663220
	C801	C	0.040153	-0.126555	0.658565
	C802	C	0.035508	-0.037064	0.657762
	C803	C	0.026720	-0.037990	0.655673
	C804	C	0.022324	-0.128515	0.654142
	C805	C	0.026971	-0.218188	0.654890
	C806	C	0.035763	-0.217207	0.657023
	C807	C	0.012911	-0.128894	0.649536
	C808	C	0.075433	-0.127642	0.663246
	C809	C	0.084839	-0.126714	0.658523
	C810	C	0.089480	-0.216395	0.657952
	C811	C	0.098293	-0.215347	0.655758
	C812	C	0.102665	-0.124787	0.654075
	C813	C	0.098015	-0.035120	0.654595
	C814	C	0.089214	-0.036209	0.656785
	C815	C	0.112066	-0.124162	0.649256
	H816	H	0.101805	-0.285180	0.655382
	H817	H	0.086204	-0.287207	0.659354
	H818	H	0.101308	-0.214420	0.721385
	H819	H	0.085730	-0.215785	0.717727
	H820	H	0.062634	-0.376514	0.652151
	H821	H	0.062575	-0.126417	0.722965
	H822	H	-0.000223	-0.128123	0.714669
	H823	H	0.125132	-0.374758	0.660378
	H824	H	0.039289	-0.286882	0.657541
	H825	H	0.023631	-0.288517	0.653801
	H826	H	0.023259	-0.217486	0.719906
	H827	H	0.038851	-0.216344	0.716293
	H828	H	0.023249	0.032253	0.655158
	H829	H	0.038796	0.033467	0.658814
	H830	H	0.039262	-0.536925	0.717823
	H831	H	0.023658	-0.538252	0.721509
	H832	H	0.086201	-0.536799	0.715873
	H833	H	0.101801	-0.535221	0.719708
	H834	H	0.085709	0.033882	0.657239
	H835	H	0.101279	0.035681	0.653330
	Al836	Al	0.062487	-0.001630	0.687555
	Al837	Al	0.062520	0.248705	0.687493
	Al838	Al	-0.000011	0.247319	0.625077
	Al839	Al	-0.000006	-0.002952	0.625233
	O840	O	0.071849	0.038273	0.709496
	O841	O	0.062517	0.123433	0.670417
	O842	O	0.062543	0.373508	0.704612
	O843	O	0.115870	0.042281	0.727545
	O844	O	0.053379	0.040121	0.710060
	O845	O	0.009360	0.036906	0.728130
	O846	O	0.053221	0.208597	0.709680
	O847	O	0.053370	0.289990	0.664875
	O848	O	0.009367	0.286753	0.647049
	O849	O	0.071640	0.206805	0.710122
	O850	O	0.071835	0.288620	0.665513
	O851	O	0.115870	0.291883	0.647828
	O852	O	0.009155	0.205331	0.727423
	O853	O	0.053217	0.458346	0.665640
	O854	O	0.009124	0.455187	0.647842
	O855	O	0.115636	0.459901	0.646770
	O856	O	0.071638	0.456869	0.664892
	O857	O	0.115600	0.210732	0.728334
	O858	O	-0.000015	0.372209	0.733028
	O859	O	0.125020	0.124899	0.642034
	C860	C	0.098005	0.214940	0.720416
	C861	C	0.102658	0.125327	0.721021
	C862	C	0.098292	0.034701	0.719194
	C863	C	0.089507	0.033683	0.717006
	C864	C	0.084847	0.123208	0.716436
	C865	C	0.089212	0.213987	0.718188
	C866	C	0.075421	0.122661	0.711801
	C867	C	0.112067	0.126171	0.725853
	C868	C	0.049599	0.124284	0.711859
	C869	C	0.040193	0.123579	0.716631
	C870	C	0.035565	0.213390	0.717318
	C871	C	0.026756	0.212584	0.719357
	C872	C	0.022354	0.122177	0.720911
	C873	C	0.026985	0.032355	0.720239
	C874	C	0.035784	0.033147	0.718160
	C875	C	0.012953	0.121248	0.725692
	C876	C	0.049605	0.374165	0.663188
	C877	C	0.040188	0.373587	0.658583
	C878	C	0.035549	0.463488	0.657751
	C879	C	0.026751	0.462821	0.655579
	C880	C	0.022346	0.372182	0.654155
	C881	C	0.026993	0.282477	0.654916
	C882	C	0.035780	0.283212	0.657065
	C883	C	0.012940	0.371364	0.649471
	C884	C	0.075418	0.373033	0.663052
	C885	C	0.084831	0.373651	0.658658
	C886	C	0.089458	0.283908	0.657850
	C887	C	0.098239	0.284664	0.655649
	C888	C	0.102653	0.375063	0.653966
	C889	C	0.098023	0.464951	0.654619
	C890	C	0.089233	0.464248	0.656813
	C891	C	0.112087	0.375729	0.649402
	H892	H	0.101735	0.214709	0.655359
	H893	H	0.086169	0.213332	0.659032
	H894	H	0.101318	0.285554	0.721682
	H895	H	0.085708	0.283527	0.717707
	H896	H	0.062528	0.122976	0.651997
	H897	H	0.062607	0.373412	0.723026
	H898	H	-0.000100	0.372102	0.714571
	H899	H	0.124984	0.124734	0.660425
	H900	H	0.039255	0.213119	0.657641
	H901	H	0.023705	0.211682	0.653834
	H902	H	0.023243	0.282431	0.719863
	H903	H	0.038849	0.284014	0.716195
	H904	H	0.023247	0.532630	0.655026
	H905	H	0.038871	0.533931	0.658821
	H906	H	0.039275	-0.036790	0.717669
	H907	H	0.023701	-0.038283	0.721391
	H908	H	0.086213	-0.036856	0.715719
	H909	H	0.101783	-0.035159	0.719499
	H910	H	0.085727	0.534217	0.657203
	H911	H	0.101360	0.535247	0.653524
	Al912	Al	0.062528	-0.501911	0.812473
	Al913	Al	0.062467	-0.251715	0.812530
	Al914	Al	0.000031	-0.252990	0.750060
	Al915	Al	0.000008	-0.502738	0.750086
	O916	O	0.071853	-0.462216	0.834500
	O917	O	0.062477	-0.376675	0.795504
	O918	O	0.062521	-0.126934	0.829566
	O919	O	0.115888	-0.457537	0.852257
	O920	O	0.053363	-0.459658	0.834997
	O921	O	0.009337	-0.463816	0.853148
	O922	O	0.053139	-0.291480	0.834591
	O923	O	0.053372	-0.209827	0.789700
	O924	O	0.009351	-0.213246	0.771954
	O925	O	0.071599	-0.294039	0.835333
	O926	O	0.071848	-0.212321	0.790804
	O927	O	0.115880	-0.207638	0.772634
	O928	O	0.009128	-0.295340	0.852522
	O929	O	0.053157	-0.041613	0.790555
	O930	O	0.009084	-0.045020	0.772826
	O931	O	0.115657	-0.039215	0.771941
	O932	O	0.071628	-0.043661	0.789801
	O933	O	0.115651	-0.289379	0.853039
	O934	O	-0.000005	-0.128781	0.857924
	O935	O	0.125027	-0.374685	0.767008
	C936	C	0.098024	-0.285425	0.845266
	C937	C	0.102677	-0.374818	0.845981
	C938	C	0.098305	-0.465375	0.844190
	C939	C	0.089514	-0.466290	0.842080
	C940	C	0.084846	-0.376787	0.841534
	C941	C	0.089239	-0.286359	0.843165
	C942	C	0.075419	-0.377779	0.836929
	C943	C	0.112086	-0.373929	0.850564
	C944	C	0.049548	-0.375920	0.836764
	C945	C	0.040132	-0.376735	0.841393
	C946	C	0.035492	-0.287080	0.842160
	C947	C	0.026695	-0.287858	0.844331
	C948	C	0.022309	-0.378582	0.846028
	C949	C	0.026952	-0.468249	0.845342
	C950	C	0.035745	-0.467439	0.843104
	C951	C	0.012925	-0.379299	0.850860
	C952	C	0.049557	-0.126104	0.788080
	C953	C	0.040149	-0.126495	0.783555
	C954	C	0.035515	-0.036867	0.782838
	C955	C	0.026720	-0.037619	0.780683
	C956	C	0.022315	-0.128156	0.779047
	C957	C	0.026955	-0.217665	0.779810
	C958	C	0.035750	-0.216854	0.781943
	C959	C	0.012922	-0.128678	0.774348
	C960	C	0.075440	-0.127826	0.788309
	C961	C	0.084839	-0.127136	0.783487
	C962	C	0.089501	-0.216657	0.782970
	C963	C	0.098307	-0.215491	0.780787
	C964	C	0.102677	-0.124776	0.779069
	C965	C	0.098017	-0.035192	0.779525
	C966	C	0.089204	-0.036356	0.781655
	C967	C	0.112079	-0.123687	0.774324
	H968	H	0.101811	-0.285552	0.780327
	H969	H	0.086225	-0.287207	0.784286
	H970	H	0.101305	-0.214753	0.846527
	H971	H	0.085716	-0.216502	0.842954
	H972	H	0.062376	-0.376320	0.777216
	H973	H	0.062629	-0.127132	0.847893
	H974	H	-0.000002	-0.128830	0.839474
	H975	H	0.125063	-0.375135	0.785365
	H976	H	0.039234	-0.286847	0.782417
	H977	H	0.023680	-0.288433	0.778757
	H978	H	0.023201	-0.217869	0.844681
	H979	H	0.038786	-0.216579	0.840877
	H980	H	0.023214	0.032298	0.780287
	H981	H	0.038821	0.033774	0.784057
	H982	H	0.039243	-0.537330	0.842513
	H983	H	0.023650	-0.538844	0.846445
	H984	H	0.086227	-0.536630	0.841022
	H985	H	0.101823	-0.534993	0.844613
	H986	H	0.085697	0.033436	0.781935
	H987	H	0.101297	0.035435	0.778084
	Al988	Al	0.062520	-0.002265	0.812453
	Al989	Al	0.062477	0.248166	0.812458
	Al990	Al	0.000026	0.247136	0.750102
	Al991	Al	-0.000019	-0.002764	0.749940
	O992	O	0.071898	0.037591	0.834369
	O993	O	0.062521	0.123125	0.795367
	O994	O	0.062503	0.373193	0.829533
	O995	O	0.115837	0.041998	0.852426
	O996	O	0.053375	0.040015	0.835109
	O997	O	0.009294	0.036926	0.852911
	O998	O	0.053140	0.208345	0.834431
	O999	O	0.053353	0.289892	0.789781
	O1000	O	0.009359	0.286737	0.772064
	O1001	O	0.071641	0.205738	0.835032
	O1002	O	0.071835	0.287651	0.790481
	O1003	O	0.115877	0.292142	0.772647
	O1004	O	0.009145	0.205176	0.852382
	O1005	O	0.053165	0.458336	0.790527
	O1006	O	0.009170	0.454805	0.772549
	O1007	O	0.115663	0.460711	0.771798
	O1008	O	0.071639	0.456126	0.789932
	O1009	O	0.115673	0.210290	0.853048
	O1010	O	-0.000017	0.371686	0.858045
	O1011	O	0.125022	0.125462	0.767079
	C1012	C	0.098003	0.214985	0.845509
	C1013	C	0.102660	0.125525	0.846134
	C1014	C	0.098285	0.034970	0.844368
	C1015	C	0.089490	0.033762	0.842153
	C1016	C	0.084837	0.123252	0.841537
	C1017	C	0.089211	0.213872	0.843283
	C1018	C	0.075452	0.122030	0.836770
	C1019	C	0.112053	0.126135	0.850810
	C1020	C	0.049575	0.123859	0.836840
	C1021	C	0.040160	0.123291	0.841622
	C1022	C	0.035549	0.213153	0.842435
	C1023	C	0.026744	0.212381	0.844544
	C1024	C	0.022330	0.121893	0.846127
	C1025	C	0.026962	0.032071	0.845366
	C1026	C	0.035762	0.032877	0.843290
	C1027	C	0.012909	0.121026	0.850617
	C1028	C	0.049575	0.374129	0.788099
	C1029	C	0.040181	0.373467	0.783444
	C1030	C	0.035535	0.463019	0.782819
	C1031	C	0.026754	0.462141	0.780630
	C1032	C	0.022379	0.371645	0.778899
	C1033	C	0.027017	0.282008	0.779673
	C1034	C	0.035808	0.282816	0.781784
	C1035	C	0.012966	0.371084	0.774348
	C1036	C	0.075437	0.372168	0.788171
	C1037	C	0.084854	0.372875	0.783642
	C1038	C	0.089488	0.283198	0.782895
	C1039	C	0.098299	0.284472	0.780733
	C1040	C	0.102679	0.375203	0.779072
	C1041	C	0.098034	0.464904	0.779601
	C1042	C	0.089238	0.463608	0.781824
	C1043	C	0.112080	0.376175	0.774311
	H1044	H	0.101810	0.214680	0.780420
	H1045	H	0.086193	0.212492	0.784156
	H1046	H	0.101320	0.285752	0.846679
	H1047	H	0.085731	0.283832	0.842790
	H1048	H	0.062528	0.123267	0.777123
	H1049	H	0.062528	0.373301	0.847797
	H1050	H	0.000113	0.371409	0.839641
	H1051	H	0.124961	0.125507	0.785410
	H1052	H	0.039316	0.213237	0.782064
	H1053	H	0.023707	0.211607	0.778400
	H1054	H	0.023245	0.282188	0.845067
	H1055	H	0.038848	0.283739	0.841357
	H1056	H	0.023266	0.532051	0.780172
	H1057	H	0.038844	0.533335	0.783833
	H1058	H	0.039273	-0.036869	0.842807
	H1059	H	0.023693	-0.038664	0.846540
	H1060	H	0.086207	-0.036912	0.840805
	H1061	H	0.101772	-0.034936	0.844639
	H1062	H	0.085725	0.533481	0.782325
	H1063	H	0.101311	0.535592	0.778355
	Al1064	Al	0.062492	-0.502212	0.937440
	Al1065	Al	0.062536	-0.252464	0.937447
	Al1066	Al	-0.000008	-0.253756	0.875016
	Al1067	Al	-0.000023	-0.503271	0.875068
	O1068	O	0.071853	-0.462744	0.959406
	O1069	O	0.062507	-0.377022	0.920343
	O1070	O	0.062528	-0.127578	0.954515
	O1071	O	0.115864	-0.458380	0.977408
	O1072	O	0.053368	-0.460212	0.960120
	O1073	O	0.009339	-0.463235	0.978143
	O1074	O	0.053167	-0.292100	0.959322
	O1075	O	0.053368	-0.209826	0.914831
	O1076	O	0.009356	-0.213528	0.896950
	O1077	O	0.071651	-0.294477	0.960036
	O1078	O	0.071858	-0.213084	0.915522
	O1079	O	0.115839	-0.207949	0.897663
	O1080	O	0.009162	-0.295138	0.977612
	O1081	O	0.053157	-0.041406	0.915594
	O1082	O	0.009146	-0.045400	0.897589
	O1083	O	0.115591	-0.039700	0.896561
	O1084	O	0.071591	-0.044681	0.914689
	O1085	O	0.115711	-0.289976	0.977789
	O1086	O	0.000005	-0.128157	0.983006
	O1087	O	0.125009	-0.374731	0.891997
	C1088	C	0.097997	-0.285627	0.970593
	C1089	C	0.102673	-0.375123	0.970949
	C1090	C	0.098305	-0.465817	0.969164
	C1091	C	0.089508	-0.467094	0.967011
	C1092	C	0.084837	-0.377588	0.966504
	C1093	C	0.089194	-0.286954	0.968497
	C1094	C	0.075452	-0.378457	0.961760
	C1095	C	0.112078	-0.374354	0.975635
	C1096	C	0.049575	-0.376334	0.961822
	C1097	C	0.040167	-0.376774	0.966664
	C1098	C	0.035535	-0.287136	0.967366
	C1099	C	0.026744	-0.287841	0.969530
	C1100	C	0.022342	-0.378295	0.971267
	C1101	C	0.026968	-0.467948	0.970544
	C1102	C	0.035765	-0.467174	0.968366
	C1103	C	0.012940	-0.378890	0.975855
	C1104	C	0.049559	-0.126112	0.913154
	C1105	C	0.040164	-0.126604	0.908513
	C1106	C	0.035532	-0.036937	0.907907
	C1107	C	0.026739	-0.037824	0.905772
	C1108	C	0.022364	-0.128486	0.903926
	C1109	C	0.026985	-0.218165	0.904749
	C1110	C	0.035773	-0.217233	0.906870
	C1111	C	0.012943	-0.129173	0.899308
	C1112	C	0.075431	-0.128613	0.913154
	C1113	C	0.084808	-0.127287	0.908490
	C1114	C	0.089483	-0.216691	0.907919
	C1115	C	0.098266	-0.215888	0.905671
	C1116	C	0.102627	-0.125088	0.903870
	C1117	C	0.097953	-0.035725	0.904445
	C1118	C	0.089171	-0.036541	0.906714
	C1119	C	0.112001	-0.124082	0.898995
	H1120	H	0.101755	-0.285790	0.905362
	H1121	H	0.086169	-0.287307	0.909351
	H1122	H	0.101278	-0.214893	0.971851
	H1123	H	0.085680	-0.217028	0.968119
	H1124	H	0.062266	-0.376949	0.902025
	H1125	H	0.062493	-0.127703	0.972857
	H1126	H	0.000012	-0.128291	0.964688
	H1127	H	0.125214	-0.374698	0.910342
	H1128	H	0.039281	-0.287148	0.907264
	H1129	H	0.023690	-0.288642	0.903571
	H1130	H	0.023287	-0.217941	0.969879
	H1131	H	0.038844	-0.216644	0.966198
	H1132	H	0.023233	0.031914	0.905420
	H1133	H	0.038835	0.033929	0.909005
	H1134	H	0.039258	-0.537289	0.967927
	H1135	H	0.023645	-0.538184	0.971640
	H1136	H	0.086253	-0.537839	0.965488
	H1137	H	0.101841	-0.535590	0.969316
	H1138	H	0.085680	0.033405	0.907228
	H1139	H	0.101249	0.034719	0.903199
	Al1140	Al	0.062483	-0.002340	0.937483
	Al1141	Al	0.062484	0.248088	0.937544
	Al1142	Al	-0.000022	0.246540	0.875091
	Al1143	Al	0.000006	-0.003796	0.874914
	O1144	O	0.071853	0.037711	0.959248
	O1145	O	0.062530	0.122959	0.920475
	O1146	O	0.062537	0.372907	0.954565
	O1147	O	0.115861	0.042255	0.977060
	O1148	O	0.053369	0.039938	0.960318
	O1149	O	0.009321	0.036920	0.978140
	O1150	O	0.053146	0.208270	0.959428
	O1151	O	0.053370	0.290300	0.914673
	O1152	O	0.009309	0.286681	0.897150
	O1153	O	0.071587	0.205782	0.960386
	O1154	O	0.071851	0.287481	0.915600
	O1155	O	0.115864	0.292367	0.897660
	O1156	O	0.009156	0.205065	0.977524
	O1157	O	0.053144	0.458485	0.915482
	O1158	O	0.009092	0.454771	0.897798
	O1159	O	0.115627	0.460593	0.896879
	O1160	O	0.071600	0.455867	0.914671
	O1161	O	0.115624	0.210330	0.978165
	O1162	O	-0.000004	0.371880	0.982926
	O1163	O	0.125004	0.125271	0.891974
	C1164	C	0.097995	0.214501	0.970538
	C1165	C	0.102659	0.125019	0.970984
	C1166	C	0.098315	0.034334	0.969043
	C1167	C	0.089517	0.033395	0.966825
	C1168	C	0.084846	0.122890	0.966312
	C1169	C	0.089204	0.213556	0.968339
	C1170	C	0.075425	0.122119	0.961827
	C1171	C	0.112058	0.126067	0.975572
	C1172	C	0.049561	0.123907	0.961843
	C1173	C	0.040158	0.123395	0.966503
	C1174	C	0.035526	0.213169	0.967124
	C1175	C	0.026731	0.212247	0.969298
	C1176	C	0.022342	0.121674	0.971079
	C1177	C	0.026971	0.032000	0.970413
	C1178	C	0.035768	0.032855	0.968209
	C1179	C	0.012940	0.121001	0.975821
	C1180	C	0.049558	0.374176	0.913003
	C1181	C	0.040156	0.373430	0.908363
	C1182	C	0.035513	0.463063	0.907827
	C1183	C	0.026717	0.462314	0.905726
	C1184	C	0.022318	0.371720	0.904005
	C1185	C	0.026970	0.282061	0.904646
	C1186	C	0.035763	0.282883	0.906662
	C1187	C	0.012898	0.371145	0.899370
	C1188	C	0.075416	0.372043	0.913039
	C1189	C	0.084818	0.372822	0.908384
	C1190	C	0.089479	0.283224	0.907961
	C1191	C	0.098272	0.284557	0.905866
	C1192	C	0.102623	0.375250	0.903830
	C1193	C	0.097976	0.464998	0.904529
	C1194	C	0.089170	0.463643	0.906632
	C1195	C	0.112054	0.376275	0.899386
	H1196	H	0.101805	0.214830	0.905631
	H1197	H	0.086200	0.212571	0.909126
	H1198	H	0.101292	0.285048	0.971732
	H1199	H	0.085698	0.283570	0.968131
	H1200	H	0.062586	0.122955	0.902100
	H1201	H	0.062541	0.372679	0.972957
	H1202	H	-0.000104	0.372077	0.964503
	H1203	H	0.125034	0.125212	0.910341
	H1204	H	0.039258	0.212917	0.907167
	H1205	H	0.023633	0.211693	0.903607
	H1206	H	0.023228	0.282271	0.969729
	H1207	H	0.038818	0.283768	0.965981
	H1208	H	0.023216	0.532189	0.905487
	H1209	H	0.038813	0.533520	0.909262
	H1210	H	0.039266	-0.036969	0.967841
	H1211	H	0.023678	-0.038711	0.971665
	H1212	H	0.086224	-0.037131	0.965369
	H1213	H	0.101828	-0.035379	0.969121
	H1214	H	0.085628	0.533309	0.906736
	H1215	H	0.101231	0.535803	0.903178
	Al1216	Al	0.187511	-0.496814	0.062434
	Al1217	Al	0.187484	-0.246904	0.062539
	Al1218	Al	0.125013	-0.249908	-0.000040
	Al1219	Al	0.125003	-0.500167	0.000126
	O1220	O	0.196859	-0.457399	0.084388
	O1221	O	0.187514	-0.371932	0.045411
	O1222	O	0.187514	-0.121945	0.079699
	O1223	O	0.240890	-0.452573	0.102328
	O1224	O	0.178396	-0.455262	0.085211
	O1225	O	0.134382	-0.459963	0.103339
	O1226	O	0.178147	-0.286809	0.084425
	O1227	O	0.178369	-0.204958	0.039947
	O1228	O	0.134385	-0.209864	0.021783
	O1229	O	0.196649	-0.289123	0.085125
	O1230	O	0.196842	-0.207141	0.040596
	O1231	O	0.240824	-0.202571	0.022577
	O1232	O	0.134124	-0.291667	0.102328
	O1233	O	0.178161	-0.036618	0.040757
	O1234	O	0.134111	-0.041669	0.022585
	O1235	O	0.240608	-0.034183	0.021794
	O1236	O	0.196618	-0.038834	0.039873
	O1237	O	0.240636	-0.284295	0.102982
	O1238	O	0.124978	-0.124923	0.107921
	O1239	O	0.249987	-0.369960	0.017013
	C1240	C	0.222999	-0.280418	0.095417
	C1241	C	0.227665	-0.369960	0.096003
	C1242	C	0.223294	-0.460598	0.094174
	C1243	C	0.214497	-0.461536	0.092021
	C1244	C	0.209852	-0.371948	0.091342
	C1245	C	0.214220	-0.281397	0.093203
	C1246	C	0.200441	-0.373112	0.086753
	C1247	C	0.237072	-0.368749	0.100628
	C1248	C	0.174571	-0.371558	0.086836
	C1249	C	0.165164	-0.372481	0.091531
	C1250	C	0.160496	-0.282983	0.092114
	C1251	C	0.151698	-0.284006	0.094278
	C1252	C	0.147353	-0.374744	0.096172
	C1253	C	0.152015	-0.464334	0.095642
	C1254	C	0.160812	-0.463283	0.093377
	C1255	C	0.137949	-0.375565	0.100705
	C1256	C	0.174567	-0.121069	0.038255
	C1257	C	0.165183	-0.122087	0.033611
	C1258	C	0.160526	-0.032678	0.033135
	C1259	C	0.151732	-0.033851	0.030922
	C1260	C	0.147365	-0.124423	0.028983
	C1261	C	0.152045	-0.213971	0.029403
	C1262	C	0.160830	-0.212741	0.031591
	C1263	C	0.137959	-0.125355	0.024281
	C1264	C	0.200421	-0.122745	0.038228
	C1265	C	0.209818	-0.121892	0.033384
	C1266	C	0.214458	-0.211538	0.032799
	C1267	C	0.223250	-0.210338	0.030581
	C1268	C	0.227618	-0.119443	0.028783
	C1269	C	0.222965	-0.029770	0.029335
	C1270	C	0.214177	-0.031077	0.031521
	C1271	C	0.237038	-0.118535	0.024170
	H1272	H	0.226763	-0.279865	0.030238
	H1273	H	0.211181	-0.282226	0.034089
	H1274	H	0.226267	-0.209656	0.096769
	H1275	H	0.210714	-0.211587	0.093029
	H1276	H	0.187587	-0.371908	0.027057
	H1277	H	0.187664	-0.121667	0.098062
	H1278	H	0.124998	-0.125022	0.089484
	H1279	H	0.250050	-0.369776	0.035327
	H1280	H	0.164347	-0.282524	0.031744
	H1281	H	0.148785	-0.284533	0.028053
	H1282	H	0.148185	-0.214194	0.094534
	H1283	H	0.163768	-0.212265	0.090928
	H1284	H	0.148196	0.035702	0.030661
	H1285	H	0.163808	0.037946	0.034470
	H1286	H	0.164325	-0.533010	0.093154
	H1287	H	0.148743	-0.535072	0.097020
	H1288	H	0.211194	-0.531950	0.090865
	H1289	H	0.226803	-0.530383	0.094565
	H1290	H	0.210676	0.038839	0.031898
	H1291	H	0.226254	0.041159	0.027977
	Al1292	Al	0.187483	0.003041	0.062552
	Al1293	Al	0.187498	0.253017	0.062373
	Al1294	Al	0.124995	0.250044	-0.000004
	Al1295	Al	0.124991	0.000486	-0.000168
	O1296	O	0.196860	0.042563	0.084355
	O1297	O	0.187445	0.127951	0.045458
	O1298	O	0.187501	0.378090	0.079461
	O1299	O	0.240856	0.047096	0.102153
	O1300	O	0.178350	0.044989	0.085219
	O1301	O	0.134340	0.039847	0.103172
	O1302	O	0.178149	0.213274	0.084444
	O1303	O	0.178404	0.294959	0.039570
	O1304	O	0.134327	0.290035	0.021971
	O1305	O	0.196621	0.210892	0.085124
	O1306	O	0.196847	0.293176	0.040538
	O1307	O	0.240867	0.297159	0.022722
	O1308	O	0.134094	0.208125	0.102312
	O1309	O	0.178167	0.463066	0.040518
	O1310	O	0.134100	0.458248	0.022860
	O1311	O	0.240637	0.465410	0.021788
	O1312	O	0.196628	0.461547	0.039673
	O1313	O	0.240631	0.215388	0.103064
	O1314	O	0.124994	0.375273	0.108105
	O1315	O	0.249979	0.130363	0.016861
	C1316	C	0.222999	0.219670	0.095380
	C1317	C	0.227647	0.130096	0.095993
	C1318	C	0.223278	0.039447	0.094235
	C1319	C	0.214489	0.038320	0.092062
	C1320	C	0.209832	0.127941	0.091413
	C1321	C	0.214200	0.218623	0.093173
	C1322	C	0.200444	0.127122	0.086696
	C1323	C	0.237030	0.130917	0.100657
	C1324	C	0.174549	0.128974	0.086858
	C1325	C	0.165146	0.127883	0.091471
	C1326	C	0.160478	0.217406	0.092081
	C1327	C	0.151679	0.216050	0.094303
	C1328	C	0.147320	0.125332	0.095959
	C1329	C	0.151996	0.035857	0.095602
	C1330	C	0.160793	0.037098	0.093398
	C1331	C	0.137909	0.124266	0.100724
	C1332	C	0.174580	0.378735	0.038095
	C1333	C	0.165157	0.377592	0.033523
	C1334	C	0.160485	0.467060	0.033009
	C1335	C	0.151690	0.465891	0.030851
	C1336	C	0.147316	0.375259	0.029100
	C1337	C	0.151991	0.285848	0.029672
	C1338	C	0.160790	0.286984	0.031821
	C1339	C	0.137916	0.374439	0.024336
	C1340	C	0.200425	0.377632	0.038145
	C1341	C	0.209836	0.378119	0.033464
	C1342	C	0.214490	0.288514	0.032982
	C1343	C	0.223278	0.289691	0.030889
	C1344	C	0.227659	0.380168	0.029046
	C1345	C	0.223020	0.469889	0.029724
	C1346	C	0.214224	0.468595	0.031802
	C1347	C	0.237063	0.380933	0.024347
	H1348	H	0.226791	0.219924	0.030509
	H1349	H	0.211205	0.217752	0.034131
	H1350	H	0.226309	0.290546	0.096641
	H1351	H	0.210691	0.288401	0.092729
	H1352	H	0.187334	0.127901	0.027073
	H1353	H	0.187558	0.378185	0.097860
	H1354	H	0.125030	0.374927	0.089725
	H1355	H	0.249870	0.130581	0.035175
	H1356	H	0.164295	0.217460	0.032249
	H1357	H	0.148711	0.215181	0.028467
	H1358	H	0.148149	0.285741	0.094649
	H1359	H	0.163740	0.288332	0.090756
	H1360	H	0.148184	0.535723	0.030612
	H1361	H	0.163752	0.537956	0.034424
	H1362	H	0.164297	-0.032700	0.093064
	H1363	H	0.148742	-0.034978	0.096945
	H1364	H	0.211222	-0.032331	0.090755
	H1365	H	0.226785	-0.030625	0.094566
	H1366	H	0.210685	0.538384	0.032116
	H1367	H	0.226311	0.540547	0.028514
	Al1368	Al	0.187451	-0.496606	0.187347
	Al1369	Al	0.187478	-0.246676	0.187581
	Al1370	Al	0.124967	-0.249948	0.124931
	Al1371	Al	0.124969	-0.499716	0.125152
	O1372	O	0.196786	-0.457250	0.209315
	O1373	O	0.187467	-0.371540	0.170406
	O1374	O	0.187501	-0.121801	0.204513
	O1375	O	0.240859	-0.452682	0.227096
	O1376	O	0.178362	-0.454959	0.210126
	O1377	O	0.134351	-0.460138	0.228121
	O1378	O	0.178148	-0.286531	0.209362
	O1379	O	0.178352	-0.204513	0.164852
	O1380	O	0.134332	-0.210138	0.146871
	O1381	O	0.196571	-0.288839	0.210271
	O1382	O	0.196832	-0.207121	0.165516
	O1383	O	0.240853	-0.202942	0.147711
	O1384	O	0.134085	-0.291687	0.227333
	O1385	O	0.178107	-0.036551	0.165577
	O1386	O	0.134089	-0.042022	0.147669
	O1387	O	0.240614	-0.034539	0.146791
	O1388	O	0.196643	-0.038740	0.164969
	O1389	O	0.240571	-0.284234	0.227958
	O1390	O	0.125004	-0.124412	0.233195
	O1391	O	0.249972	-0.370177	0.142080
	C1392	C	0.222946	-0.280316	0.220530
	C1393	C	0.227613	-0.369895	0.220890
	C1394	C	0.223251	-0.460649	0.219014
	C1395	C	0.214457	-0.461948	0.216845
	C1396	C	0.209800	-0.372266	0.216363
	C1397	C	0.214148	-0.281588	0.218416
	C1398	C	0.200367	-0.372946	0.211821
	C1399	C	0.237031	-0.368916	0.225571
	C1400	C	0.174564	-0.371038	0.211856
	C1401	C	0.165169	-0.371689	0.216515
	C1402	C	0.160496	-0.282035	0.217178
	C1403	C	0.151701	-0.283289	0.219295
	C1404	C	0.147330	-0.374093	0.220991
	C1405	C	0.151996	-0.463698	0.220340
	C1406	C	0.160807	-0.462484	0.218219
	C1407	C	0.137909	-0.375546	0.225649
	C1408	C	0.174532	-0.120916	0.163106
	C1409	C	0.165129	-0.122004	0.158493
	C1410	C	0.160451	-0.032627	0.157989
	C1411	C	0.151652	-0.034226	0.155821
	C1412	C	0.147299	-0.124918	0.154069
	C1413	C	0.151971	-0.214204	0.154628
	C1414	C	0.160765	-0.212617	0.156784
	C1415	C	0.137886	-0.125793	0.149362
	C1416	C	0.200429	-0.122752	0.163186
	C1417	C	0.209816	-0.121819	0.158484
	C1418	C	0.214467	-0.211459	0.157949
	C1419	C	0.223267	-0.210443	0.155855
	C1420	C	0.227655	-0.119766	0.154015
	C1421	C	0.222990	-0.030217	0.154491
	C1422	C	0.214194	-0.031159	0.156613
	C1423	C	0.237042	-0.118921	0.149246
	H1424	H	0.226787	-0.280135	0.155587
	H1425	H	0.211188	-0.282134	0.159288
	H1426	H	0.226233	-0.209601	0.221897
	H1427	H	0.210639	-0.211627	0.218160
	H1428	H	0.187499	-0.371107	0.152017
	H1429	H	0.187541	-0.121897	0.222846
	H1430	H	0.124820	-0.124420	0.214828
	H1431	H	0.249821	-0.370187	0.160476
	H1432	H	0.164262	-0.282539	0.157079
	H1433	H	0.148706	-0.285051	0.153294
	H1434	H	0.148181	-0.213469	0.219653
	H1435	H	0.163769	-0.211179	0.215998
	H1436	H	0.148137	0.035333	0.155518
	H1437	H	0.163717	0.038043	0.159184
	H1438	H	0.164313	-0.532240	0.217869
	H1439	H	0.148708	-0.534463	0.221546
	H1440	H	0.211178	-0.532715	0.215460
	H1441	H	0.226762	-0.530507	0.219243
	H1442	H	0.210683	0.038923	0.156877
	H1443	H	0.226272	0.040454	0.153265
	Al1444	Al	0.187458	0.003117	0.187480
	Al1445	Al	0.187483	0.253180	0.187427
	Al1446	Al	0.124975	0.250128	0.125084
	Al1447	Al	0.124963	0.000161	0.124957
	O1448	O	0.196778	0.043033	0.209483
	O1449	O	0.187463	0.127966	0.170370
	O1450	O	0.187487	0.378318	0.204342
	O1451	O	0.240843	0.047801	0.226822
	O1452	O	0.178362	0.045154	0.210325
	O1453	O	0.134372	0.040049	0.228420
	O1454	O	0.178121	0.213434	0.209340
	O1455	O	0.178382	0.295502	0.164618
	O1456	O	0.134313	0.289688	0.146940
	O1457	O	0.196555	0.211536	0.210274
	O1458	O	0.196826	0.292878	0.165343
	O1459	O	0.240875	0.296647	0.147787
	O1460	O	0.134076	0.208166	0.227316
	O1461	O	0.178086	0.463737	0.165555
	O1462	O	0.134075	0.457989	0.147929
	O1463	O	0.240636	0.464896	0.146893
	O1464	O	0.196615	0.461320	0.164704
	O1465	O	0.240578	0.216153	0.228047
	O1466	O	0.124980	0.375132	0.233028
	O1467	O	0.249982	0.130100	0.142018
	C1468	C	0.222955	0.220223	0.220508
	C1469	C	0.227604	0.130573	0.220930
	C1470	C	0.223242	0.039842	0.219192
	C1471	C	0.214442	0.039016	0.217106
	C1472	C	0.209789	0.128563	0.216453
	C1473	C	0.214163	0.219293	0.218405
	C1474	C	0.200390	0.127620	0.211868
	C1475	C	0.237014	0.131478	0.225435
	C1476	C	0.174553	0.129015	0.211867
	C1477	C	0.165150	0.127839	0.216588
	C1478	C	0.160481	0.217274	0.217167
	C1479	C	0.151682	0.215943	0.219351
	C1480	C	0.147337	0.125198	0.221082
	C1481	C	0.152008	0.035793	0.220319
	C1482	C	0.160802	0.037065	0.218140
	C1483	C	0.137919	0.124516	0.225826
	C1484	C	0.174532	0.379092	0.163161
	C1485	C	0.165119	0.377746	0.158561
	C1486	C	0.160435	0.467118	0.158084
	C1487	C	0.151642	0.465882	0.155972
	C1488	C	0.147291	0.375109	0.154160
	C1489	C	0.151964	0.285740	0.154712
	C1490	C	0.160771	0.286950	0.156832
	C1491	C	0.137892	0.374148	0.149482
	C1492	C	0.200404	0.377314	0.163018
	C1493	C	0.209825	0.377957	0.158349
	C1494	C	0.214480	0.288238	0.157983
	C1495	C	0.223272	0.289138	0.155914
	C1496	C	0.227640	0.379722	0.153972
	C1497	C	0.222990	0.469448	0.154518
	C1498	C	0.214195	0.468511	0.156558
	C1499	C	0.237069	0.380384	0.149388
	H1500	H	0.226764	0.219239	0.155574
	H1501	H	0.211184	0.217754	0.159224
	H1502	H	0.226235	0.290823	0.221767
	H1503	H	0.210661	0.289183	0.218130
	H1504	H	0.187510	0.128049	0.152102
	H1505	H	0.187493	0.378433	0.222724
	H1506	H	0.124888	0.374631	0.214621
	H1507	H	0.249947	0.129859	0.160331
	H1508	H	0.164303	0.217393	0.157116
	H1509	H	0.148704	0.214720	0.153330
	H1510	H	0.148162	0.285837	0.219756
	H1511	H	0.163754	0.288087	0.215909
	H1512	H	0.148138	0.535657	0.155562
	H1513	H	0.163682	0.538108	0.159309
	H1514	H	0.164312	-0.032905	0.217579
	H1515	H	0.148748	-0.034982	0.221467
	H1516	H	0.211151	-0.031743	0.215781
	H1517	H	0.226767	-0.029814	0.219394
	H1518	H	0.210689	0.538363	0.156687
	H1519	H	0.226278	0.540079	0.153147
	Al1520	Al	0.187496	-0.497144	0.312561
	Al1521	Al	0.187498	-0.247281	0.312756
	Al1522	Al	0.125011	-0.249312	0.250203
	Al1523	Al	0.124963	-0.499732	0.249979
	O1524	O	0.196848	-0.457548	0.334316
	O1525	O	0.187458	-0.372144	0.295602
	O1526	O	0.187481	-0.122197	0.329610
	O1527	O	0.240879	-0.452419	0.352233
	O1528	O	0.178370	-0.455100	0.335399
	O1529	O	0.134336	-0.459812	0.353006
	O1530	O	0.178137	-0.286589	0.334585
	O1531	O	0.178414	-0.205353	0.289875
	O1532	O	0.134378	-0.210118	0.272131
	O1533	O	0.196551	-0.289273	0.335568
	O1534	O	0.196863	-0.207841	0.290823
	O1535	O	0.240859	-0.202321	0.272579
	O1536	O	0.134113	-0.291706	0.352570
	O1537	O	0.178152	-0.036891	0.290549
	O1538	O	0.134127	-0.041801	0.272919
	O1539	O	0.240589	-0.033574	0.271639
	O1540	O	0.196600	-0.039121	0.289935
	O1541	O	0.240588	-0.284022	0.353064
	O1542	O	0.125028	-0.124972	0.358007
	O1543	O	0.249949	-0.369548	0.266917
	C1544	C	0.222953	-0.279751	0.345529
	C1545	C	0.227633	-0.369260	0.345939
	C1546	C	0.223282	-0.459901	0.344133
	C1547	C	0.214479	-0.461253	0.342074
	C1548	C	0.209805	-0.371772	0.341596
	C1549	C	0.214147	-0.280954	0.343453
	C1550	C	0.200401	-0.373068	0.337020
	C1551	C	0.237040	-0.368733	0.350528
	C1552	C	0.174542	-0.371221	0.336970
	C1553	C	0.165152	-0.371933	0.341643
	C1554	C	0.160509	-0.282407	0.342267
	C1555	C	0.151708	-0.283734	0.344392
	C1556	C	0.147335	-0.374272	0.346082
	C1557	C	0.151978	-0.463877	0.345431
	C1558	C	0.160784	-0.462591	0.343279
	C1559	C	0.137927	-0.375491	0.350720
	C1560	C	0.174588	-0.121351	0.288193
	C1561	C	0.165189	-0.122535	0.283498
	C1562	C	0.160531	-0.032867	0.283007
	C1563	C	0.151734	-0.033942	0.280837
	C1564	C	0.147375	-0.124581	0.278997
	C1565	C	0.152023	-0.214206	0.279586
	C1566	C	0.160824	-0.213168	0.281747
	C1567	C	0.137947	-0.125590	0.274423
	C1568	C	0.200427	-0.123014	0.288327
	C1569	C	0.209820	-0.122062	0.283642
	C1570	C	0.214488	-0.211620	0.282970
	C1571	C	0.223284	-0.210406	0.280795
	C1572	C	0.227636	-0.119516	0.279021
	C1573	C	0.222955	-0.029999	0.279366
	C1574	C	0.214160	-0.031180	0.281566
	C1575	C	0.237036	-0.118325	0.274128
	H1576	H	0.226804	-0.279919	0.280562
	H1577	H	0.211210	-0.282290	0.284309
	H1578	H	0.226223	-0.208998	0.346945
	H1579	H	0.210602	-0.211459	0.343287
	H1580	H	0.187349	-0.371733	0.277304
	H1581	H	0.187447	-0.122046	0.347911
	H1582	H	0.125027	-0.124917	0.339673
	H1583	H	0.249912	-0.369015	0.285108
	H1584	H	0.164335	-0.282936	0.282137
	H1585	H	0.148752	-0.284844	0.278372
	H1586	H	0.148196	-0.213883	0.344784
	H1587	H	0.163765	-0.211412	0.341138
	H1588	H	0.148220	0.035870	0.280453
	H1589	H	0.163795	0.037815	0.284292
	H1590	H	0.164307	-0.532288	0.342884
	H1591	H	0.148725	-0.534906	0.346617
	H1592	H	0.211228	-0.532000	0.340909
	H1593	H	0.226781	-0.529692	0.344401
	H1594	H	0.210632	0.038547	0.281816
	H1595	H	0.226252	0.040588	0.277925
	Al1596	Al	0.187474	0.003098	0.312559
	Al1597	Al	0.187433	0.252958	0.312554
	Al1598	Al	0.124998	0.250284	0.250132
	Al1599	Al	0.125001	0.000479	0.250170
	O1600	O	0.196810	0.042658	0.334628
	O1601	O	0.187468	0.127840	0.295526
	O1602	O	0.187467	0.378090	0.329575
	O1603	O	0.240841	0.046997	0.352303
	O1604	O	0.178337	0.044459	0.335118
	O1605	O	0.134378	0.039798	0.353141
	O1606	O	0.178108	0.212825	0.334516
	O1607	O	0.178333	0.295385	0.289892
	O1608	O	0.134331	0.289994	0.272076
	O1609	O	0.196558	0.210884	0.335415
	O1610	O	0.196809	0.292580	0.290644
	O1611	O	0.240848	0.297495	0.272587
	O1612	O	0.134111	0.208327	0.352415
	O1613	O	0.178074	0.463689	0.290839
	O1614	O	0.134069	0.458208	0.272943
	O1615	O	0.240623	0.465985	0.271847
	O1616	O	0.196579	0.460850	0.289657
	O1617	O	0.240615	0.215537	0.353135
	O1618	O	0.124974	0.375051	0.357903
	O1619	O	0.249950	0.130224	0.266938
	C1620	C	0.222984	0.219517	0.345522
	C1621	C	0.227643	0.130110	0.345932
	C1622	C	0.223261	0.039336	0.344227
	C1623	C	0.214462	0.038369	0.342037
	C1624	C	0.209809	0.128000	0.341518
	C1625	C	0.214194	0.218526	0.343405
	C1626	C	0.200398	0.127235	0.336990
	C1627	C	0.237031	0.130984	0.350658
	C1628	C	0.174547	0.128413	0.336887
	C1629	C	0.165129	0.127688	0.341505
	C1630	C	0.160487	0.217335	0.342233
	C1631	C	0.151689	0.216148	0.344343
	C1632	C	0.147321	0.125191	0.345992
	C1633	C	0.151960	0.035597	0.345304
	C1634	C	0.160761	0.036778	0.343135
	C1635	C	0.137928	0.124614	0.350707
	C1636	C	0.174515	0.379090	0.288290
	C1637	C	0.165109	0.378293	0.283574
	C1638	C	0.160440	0.467637	0.283057
	C1639	C	0.151643	0.466522	0.280953
	C1640	C	0.147299	0.375749	0.279125
	C1641	C	0.151959	0.286372	0.279767
	C1642	C	0.160754	0.287517	0.281884
	C1643	C	0.137899	0.374460	0.274508
	C1644	C	0.200391	0.376880	0.288173
	C1645	C	0.209810	0.377883	0.283497
	C1646	C	0.214493	0.288366	0.283021
	C1647	C	0.223296	0.289703	0.280970
	C1648	C	0.227648	0.380453	0.279053
	C1649	C	0.222959	0.469923	0.279607
	C1650	C	0.214152	0.468650	0.281690
	C1651	C	0.237043	0.381578	0.274328
	H1652	H	0.226819	0.219860	0.280719
	H1653	H	0.211221	0.217696	0.284242
	H1654	H	0.226268	0.290249	0.346880
	H1655	H	0.210692	0.288408	0.343150
	H1656	H	0.187471	0.127989	0.277190
	H1657	H	0.187430	0.378172	0.347964
	H1658	H	0.124873	0.374637	0.339568
	H1659	H	0.250024	0.130165	0.285233
	H1660	H	0.164250	0.217429	0.282218
	H1661	H	0.148682	0.215727	0.278569
	H1662	H	0.148206	0.286054	0.344731
	H1663	H	0.163781	0.287927	0.341052
	H1664	H	0.148146	0.536320	0.280683
	H1665	H	0.163717	0.538421	0.284329
	H1666	H	0.164262	-0.033070	0.342656
	H1667	H	0.148660	-0.034874	0.346411
	H1668	H	0.211161	-0.032065	0.340789
	H1669	H	0.226760	-0.030429	0.344505
	H1670	H	0.210625	0.538504	0.281928
	H1671	H	0.226220	0.540789	0.278290
	Al1672	Al	0.187487	-0.497466	0.437520
	Al1673	Al	0.187487	-0.247481	0.437578
	Al1674	Al	0.124984	-0.249869	0.375156
	Al1675	Al	0.124983	-0.500215	0.374948
	O1676	O	0.196824	-0.457943	0.459533
	O1677	O	0.187493	-0.372370	0.420492
	O1678	O	0.187535	-0.122384	0.454602
	O1679	O	0.240856	-0.454366	0.477395
	O1680	O	0.178414	-0.455678	0.460318
	O1681	O	0.134358	-0.460236	0.478074
	O1682	O	0.178142	-0.287358	0.459397
	O1683	O	0.178373	-0.205639	0.414852
	O1684	O	0.134356	-0.210421	0.396971
	O1685	O	0.196629	-0.289584	0.460338
	O1686	O	0.196842	-0.207649	0.415800
	O1687	O	0.240909	-0.202888	0.397867
	O1688	O	0.134131	-0.292021	0.477217
	O1689	O	0.178154	-0.037151	0.415523
	O1690	O	0.134103	-0.042087	0.397867
	O1691	O	0.240603	-0.034373	0.396897
	O1692	O	0.196618	-0.038995	0.414814
	O1693	O	0.240669	-0.285926	0.478118
	O1694	O	0.125001	-0.124961	0.482940
	O1695	O	0.250005	-0.369901	0.391977
	C1696	C	0.223016	-0.281425	0.470409
	C1697	C	0.227667	-0.370997	0.470980
	C1698	C	0.223274	-0.461657	0.469219
	C1699	C	0.214472	-0.462856	0.467029
	C1700	C	0.209830	-0.373151	0.466479
	C1701	C	0.214218	-0.282516	0.468262
	C1702	C	0.200426	-0.373614	0.461961
	C1703	C	0.237072	-0.370386	0.475685
	C1704	C	0.174580	-0.371993	0.461872
	C1705	C	0.165166	-0.372933	0.466508
	C1706	C	0.160524	-0.283471	0.467335
	C1707	C	0.151733	-0.284566	0.469419
	C1708	C	0.147352	-0.375112	0.470968
	C1709	C	0.151999	-0.464761	0.470320
	C1710	C	0.160800	-0.463642	0.468180
	C1711	C	0.137950	-0.375961	0.475616
	C1712	C	0.174561	-0.121532	0.413202
	C1713	C	0.165156	-0.122779	0.408373
	C1714	C	0.160483	-0.033339	0.407840
	C1715	C	0.151688	-0.034264	0.405696
	C1716	C	0.147321	-0.125030	0.403948
	C1717	C	0.151978	-0.214624	0.404620
	C1718	C	0.160772	-0.213579	0.406770
	C1719	C	0.137929	-0.125905	0.399385
	C1720	C	0.200411	-0.123048	0.413243
	C1721	C	0.209812	-0.122183	0.408503
	C1722	C	0.214472	-0.211881	0.408081
	C1723	C	0.223264	-0.211023	0.405864
	C1724	C	0.227642	-0.120371	0.404051
	C1725	C	0.222977	-0.030604	0.404482
	C1726	C	0.214178	-0.031366	0.406718
	C1727	C	0.237077	-0.119176	0.399379
	H1728	H	0.226761	-0.280875	0.405602
	H1729	H	0.211199	-0.282495	0.409452
	H1730	H	0.226303	-0.210684	0.471644
	H1731	H	0.210715	-0.212582	0.467865
	H1732	H	0.187347	-0.371923	0.402149
	H1733	H	0.187573	-0.122744	0.472975
	H1734	H	0.125001	-0.124702	0.464574
	H1735	H	0.249984	-0.370486	0.410223
	H1736	H	0.164271	-0.283543	0.407191
	H1737	H	0.148668	-0.284918	0.403366
	H1738	H	0.148235	-0.214496	0.469861
	H1739	H	0.163806	-0.212783	0.466202
	H1740	H	0.148205	0.035618	0.405238
	H1741	H	0.163790	0.037190	0.409060
	H1742	H	0.164314	-0.533286	0.467753
	H1743	H	0.148721	-0.535385	0.471438
	H1744	H	0.211183	-0.533514	0.465695
	H1745	H	0.226776	-0.531591	0.469528
	H1746	H	0.210680	0.038674	0.407081
	H1747	H	0.226293	0.039868	0.403211
	Al1748	Al	0.187494	0.002462	0.437555
	Al1749	Al	0.187492	0.252508	0.437546
	Al1750	Al	0.124983	0.250078	0.374937
	Al1751	Al	0.125018	0.000016	0.375087
	O1752	O	0.196870	0.042149	0.459324
	O1753	O	0.187515	0.127534	0.420554
	O1754	O	0.187531	0.377662	0.454569
	O1755	O	0.240861	0.045656	0.477274
	O1756	O	0.178386	0.044460	0.460224
	O1757	O	0.134359	0.039877	0.478174
	O1758	O	0.178179	0.212826	0.459518
	O1759	O	0.178372	0.294644	0.414830
	O1760	O	0.134327	0.290030	0.396958
	O1761	O	0.196607	0.210538	0.460441
	O1762	O	0.196869	0.292284	0.415706
	O1763	O	0.240904	0.296936	0.397890
	O1764	O	0.134140	0.208206	0.477428
	O1765	O	0.178130	0.462933	0.415579
	O1766	O	0.134112	0.458206	0.397641
	O1767	O	0.240667	0.465135	0.396993
	O1768	O	0.196646	0.460569	0.414951
	O1769	O	0.240659	0.213969	0.478137
	O1770	O	0.124983	0.375014	0.482982
	O1771	O	0.249997	0.129917	0.392035
	C1772	C	0.223027	0.218844	0.470391
	C1773	C	0.227659	0.129210	0.470914
	C1774	C	0.223284	0.038626	0.469301
	C1775	C	0.214486	0.037626	0.467206
	C1776	C	0.209840	0.127194	0.466610
	C1777	C	0.214226	0.217785	0.468326
	C1778	C	0.200439	0.126733	0.461904
	C1779	C	0.237075	0.129633	0.475632
	C1780	C	0.174588	0.128476	0.461904
	C1781	C	0.165177	0.127572	0.466548
	C1782	C	0.160505	0.217165	0.467235
	C1783	C	0.151709	0.215885	0.469359
	C1784	C	0.147348	0.125139	0.471028
	C1785	C	0.152027	0.035570	0.470404
	C1786	C	0.160820	0.036781	0.468272
	C1787	C	0.137931	0.124192	0.475798
	C1788	C	0.174575	0.378377	0.413180
	C1789	C	0.165162	0.377310	0.408505
	C1790	C	0.160498	0.466780	0.407830
	C1791	C	0.151698	0.465892	0.405631
	C1792	C	0.147335	0.375209	0.403949
	C1793	C	0.151997	0.285707	0.404705
	C1794	C	0.160799	0.286604	0.406892
	C1795	C	0.137916	0.374264	0.399347
	C1796	C	0.200441	0.376707	0.413289
	C1797	C	0.209841	0.377961	0.408510
	C1798	C	0.214507	0.288479	0.408084
	C1799	C	0.223307	0.289450	0.405831
	C1800	C	0.227676	0.380099	0.404001
	C1801	C	0.222995	0.469599	0.404417
	C1802	C	0.214214	0.468505	0.406680
	C1803	C	0.237088	0.380963	0.399469
	H1804	H	0.226825	0.219704	0.405471
	H1805	H	0.211217	0.217811	0.409433
	H1806	H	0.226305	0.289448	0.471614
	H1807	H	0.210730	0.287720	0.468056
	H1808	H	0.187570	0.127339	0.402266
	H1809	H	0.187654	0.377819	0.472965
	H1810	H	0.124977	0.374999	0.464582
	H1811	H	0.250052	0.129489	0.410386
	H1812	H	0.164336	0.216771	0.407166
	H1813	H	0.148754	0.214790	0.403462
	H1814	H	0.148181	0.285717	0.469641
	H1815	H	0.163806	0.287652	0.465970
	H1816	H	0.148166	0.535505	0.405094
	H1817	H	0.163783	0.537658	0.408812
	H1818	H	0.164323	-0.032906	0.467763
	H1819	H	0.148744	-0.035216	0.471530
	H1820	H	0.211201	-0.033036	0.466051
	H1821	H	0.226791	-0.031254	0.469787
	H1822	H	0.210722	0.538591	0.407051
	H1823	H	0.226248	0.540310	0.402985
	Al1824	Al	0.187506	-0.497909	0.562476
	Al1825	Al	0.187507	-0.247539	0.562522
	Al1826	Al	0.125013	-0.249914	0.499977
	Al1827	Al	0.125004	-0.499830	0.499969
	O1828	O	0.196855	-0.458110	0.584480
	O1829	O	0.187483	-0.373010	0.545503
	O1830	O	0.187518	-0.122779	0.579533
	O1831	O	0.240920	-0.453307	0.602326
	O1832	O	0.178381	-0.455875	0.585204
	O1833	O	0.134406	-0.460019	0.603147
	O1834	O	0.178196	-0.287662	0.584442
	O1835	O	0.178376	-0.206288	0.539910
	O1836	O	0.134365	-0.210131	0.521822
	O1837	O	0.196644	-0.289635	0.585187
	O1838	O	0.196865	-0.208328	0.540586
	O1839	O	0.240880	-0.203983	0.522691
	O1840	O	0.134141	-0.291776	0.602372
	O1841	O	0.178165	-0.037680	0.540533
	O1842	O	0.134132	-0.041742	0.522773
	O1843	O	0.240672	-0.035529	0.522162
	O1844	O	0.196632	-0.039861	0.539804
	O1845	O	0.240687	-0.285141	0.603038
	O1846	O	0.124974	-0.124854	0.607920
	O1847	O	0.250028	-0.370924	0.517165
	C1848	C	0.223028	-0.280889	0.595267
	C1849	C	0.227690	-0.370425	0.595895
	C1850	C	0.223303	-0.461140	0.594303
	C1851	C	0.214512	-0.462239	0.592191
	C1852	C	0.209854	-0.372751	0.591521
	C1853	C	0.214234	-0.281974	0.593181
	C1854	C	0.200439	-0.373573	0.586802
	C1855	C	0.237110	-0.369486	0.600606
	C1856	C	0.174596	-0.371930	0.586857
	C1857	C	0.165187	-0.372706	0.591527
	C1858	C	0.160542	-0.283041	0.592188
	C1859	C	0.151750	-0.283774	0.594359
	C1860	C	0.147380	-0.374501	0.596152
	C1861	C	0.152021	-0.464122	0.595332
	C1862	C	0.160810	-0.463314	0.593170
	C1863	C	0.137972	-0.375602	0.600788
	C1864	C	0.174585	-0.122312	0.538207
	C1865	C	0.165184	-0.122984	0.533490
	C1866	C	0.160557	-0.033300	0.532906
	C1867	C	0.151749	-0.034457	0.530787
	C1868	C	0.147357	-0.125009	0.529031
	C1869	C	0.151998	-0.214665	0.529645
	C1870	C	0.160813	-0.213748	0.531767
	C1871	C	0.137955	-0.125612	0.524282
	C1872	C	0.200438	-0.123963	0.538150
	C1873	C	0.209855	-0.122935	0.533392
	C1874	C	0.214500	-0.212626	0.532948
	C1875	C	0.223301	-0.211712	0.530759
	C1876	C	0.227662	-0.120871	0.528900
	C1877	C	0.223024	-0.031207	0.529633
	C1878	C	0.214230	-0.032146	0.531795
	C1879	C	0.237084	-0.119962	0.524432
	H1880	H	0.226800	-0.281501	0.530291
	H1881	H	0.211191	-0.283324	0.534038
	H1882	H	0.226323	-0.210198	0.596615
	H1883	H	0.210731	-0.212237	0.592866
	H1884	H	0.187318	-0.372722	0.527185
	H1885	H	0.187656	-0.122881	0.597941
	H1886	H	0.124846	-0.124592	0.589639
	H1887	H	0.250190	-0.370831	0.535580
	H1888	H	0.164304	-0.283523	0.532291
	H1889	H	0.148711	-0.285293	0.528500
	H1890	H	0.148258	-0.213823	0.594790
	H1891	H	0.163858	-0.212479	0.590958
	H1892	H	0.148255	0.035567	0.530499
	H1893	H	0.163830	0.037254	0.534234
	H1894	H	0.164292	-0.533240	0.592749
	H1895	H	0.148699	-0.534674	0.596467
	H1896	H	0.211212	-0.532884	0.591146
	H1897	H	0.226807	-0.530929	0.594869
	H1898	H	0.210728	0.037847	0.532102
	H1899	H	0.226301	0.039217	0.528302
	Al1900	Al	0.187496	0.002014	0.562493
	Al1901	Al	0.187509	0.251833	0.562445
	Al1902	Al	0.124993	0.249978	0.500205
	Al1903	Al	0.125004	-0.000088	0.500063
	O1904	O	0.196881	0.041761	0.584277
	O1905	O	0.187521	0.127031	0.545333
	O1906	O	0.187548	0.376949	0.579509
	O1907	O	0.240882	0.046231	0.602241
	O1908	O	0.178400	0.044074	0.585186
	O1909	O	0.134316	0.040158	0.603001
	O1910	O	0.178115	0.212482	0.584215
	O1911	O	0.178338	0.293675	0.539847
	O1912	O	0.134329	0.289909	0.522241
	O1913	O	0.196662	0.210021	0.585034
	O1914	O	0.196909	0.291507	0.540735
	O1915	O	0.240900	0.296069	0.522713
	O1916	O	0.134131	0.208368	0.602292
	O1917	O	0.178197	0.462033	0.540451
	O1918	O	0.134108	0.458209	0.522726
	O1919	O	0.240669	0.464265	0.521934
	O1920	O	0.196663	0.460000	0.539952
	O1921	O	0.240658	0.214803	0.603039
	O1922	O	0.124992	0.375047	0.608033
	O1923	O	0.250025	0.128987	0.517049
	C1924	C	0.223019	0.218861	0.595356
	C1925	C	0.227672	0.129283	0.595983
	C1926	C	0.223314	0.038338	0.594241
	C1927	C	0.214509	0.037341	0.592088
	C1928	C	0.209863	0.127063	0.591419
	C1929	C	0.214217	0.217851	0.593166
	C1930	C	0.200456	0.126212	0.586756
	C1931	C	0.237082	0.130332	0.600634
	C1932	C	0.174569	0.127926	0.586731
	C1933	C	0.165168	0.127228	0.591459
	C1934	C	0.160516	0.217072	0.592081
	C1935	C	0.151718	0.215977	0.594257
	C1936	C	0.147342	0.125331	0.595993
	C1937	C	0.151983	0.035624	0.595313
	C1938	C	0.160792	0.036691	0.593176
	C1939	C	0.137939	0.124493	0.600670
	C1940	C	0.174573	0.377811	0.538100
	C1941	C	0.165169	0.377174	0.533466
	C1942	C	0.160502	0.466709	0.532869
	C1943	C	0.151700	0.465832	0.530778
	C1944	C	0.147339	0.375085	0.528960
	C1945	C	0.151994	0.285404	0.529727
	C1946	C	0.160789	0.286463	0.531819
	C1947	C	0.137935	0.374480	0.524531
	C1948	C	0.200463	0.375968	0.538233
	C1949	C	0.209870	0.377053	0.533462
	C1950	C	0.214509	0.287589	0.532981
	C1951	C	0.223297	0.288565	0.530725
	C1952	C	0.227664	0.379154	0.528788
	C1953	C	0.223024	0.468753	0.529518
	C1954	C	0.214234	0.467697	0.531808
	C1955	C	0.237087	0.379892	0.524244
	H1956	H	0.226800	0.218754	0.530510
	H1957	H	0.211238	0.217124	0.534384
	H1958	H	0.226311	0.289576	0.596454
	H1959	H	0.210728	0.287781	0.592634
	H1960	H	0.187572	0.126658	0.526938
	H1961	H	0.187646	0.376919	0.597879
	H1962	H	0.124898	0.375355	0.589651
	H1963	H	0.249984	0.128460	0.535384
	H1964	H	0.164304	0.216572	0.531986
	H1965	H	0.148704	0.214773	0.528469
	H1966	H	0.148213	0.285862	0.594712
	H1967	H	0.163779	0.287814	0.590855
	H1968	H	0.148206	0.535648	0.530300
	H1969	H	0.163813	0.537237	0.533912
	H1970	H	0.164320	-0.032902	0.592796
	H1971	H	0.148709	-0.034961	0.596518
	H1972	H	0.211222	-0.033158	0.590714
	H1973	H	0.226828	-0.031600	0.594612
	H1974	H	0.210745	0.537408	0.532305
	H1975	H	0.226320	0.539310	0.528335
	Al1976	Al	0.187508	-0.497289	0.687422
	Al1977	Al	0.187467	-0.247370	0.687516
	Al1978	Al	0.125014	-0.249968	0.624972
	Al1979	Al	0.125013	-0.499762	0.625006
	O1980	O	0.196849	-0.457752	0.709513
	O1981	O	0.187507	-0.372182	0.670376
	O1982	O	0.187548	-0.122303	0.704610
	O1983	O	0.240878	-0.453526	0.727190
	O1984	O	0.178354	-0.455497	0.710095
	O1985	O	0.134369	-0.459898	0.728005
	O1986	O	0.178138	-0.287333	0.709348
	O1987	O	0.178393	-0.205161	0.664766
	O1988	O	0.134381	-0.210357	0.646742
	O1989	O	0.196641	-0.289355	0.710099
	O1990	O	0.196845	-0.206913	0.665643
	O1991	O	0.240879	-0.203526	0.647653
	O1992	O	0.134133	-0.291779	0.727253
	O1993	O	0.178161	-0.036951	0.665628
	O1994	O	0.134136	-0.042080	0.647660
	O1995	O	0.240658	-0.035128	0.646916
	O1996	O	0.196645	-0.038895	0.664763
	O1997	O	0.240670	-0.285271	0.728024
	O1998	O	0.125025	-0.124653	0.732950
	O1999	O	0.250031	-0.370909	0.642069
	C2000	C	0.223023	-0.280832	0.720334
	C2001	C	0.227673	-0.370371	0.720848
	C2002	C	0.223306	-0.461037	0.719120
	C2003	C	0.214497	-0.462126	0.716964
	C2004	C	0.209858	-0.372508	0.716372
	C2005	C	0.214228	-0.281961	0.718226
	C2006	C	0.200448	-0.373287	0.711770
	C2007	C	0.237082	-0.369668	0.725532
	C2008	C	0.174545	-0.371663	0.711686
	C2009	C	0.165169	-0.372587	0.716401
	C2010	C	0.160523	-0.283133	0.717012
	C2011	C	0.151720	-0.284044	0.719169
	C2012	C	0.147348	-0.374569	0.720836
	C2013	C	0.152006	-0.464032	0.720471
	C2014	C	0.160804	-0.463334	0.718282
	C2015	C	0.137960	-0.375581	0.725649
	C2016	C	0.174573	-0.121611	0.663135
	C2017	C	0.165184	-0.122150	0.658476
	C2018	C	0.160523	-0.032449	0.657741
	C2019	C	0.151724	-0.033638	0.655635
	C2020	C	0.147355	-0.124537	0.653955
	C2021	C	0.152024	-0.214022	0.654598
	C2022	C	0.160811	-0.212827	0.656688
	C2023	C	0.137948	-0.125953	0.649282
	C2024	C	0.200453	-0.122943	0.663184
	C2025	C	0.209855	-0.122182	0.658500
	C2026	C	0.214487	-0.211886	0.657856
	C2027	C	0.223288	-0.210933	0.655614
	C2028	C	0.227671	-0.120371	0.653900
	C2029	C	0.223030	-0.030746	0.654612
	C2030	C	0.214235	-0.031735	0.656771
	C2031	C	0.237072	-0.119644	0.649207
	H2032	H	0.226790	-0.280687	0.655150
	H2033	H	0.211197	-0.282345	0.659032
	H2034	H	0.226287	-0.210066	0.721663
	H2035	H	0.210741	-0.211888	0.717968
	H2036	H	0.187425	-0.371839	0.652177
	H2037	H	0.187605	-0.122452	0.722893
	H2038	H	0.124973	-0.124368	0.714598
	H2039	H	0.249934	-0.371025	0.660447
	H2040	H	0.164329	-0.282666	0.657047
	H2041	H	0.148740	-0.284677	0.653573
	H2042	H	0.148242	-0.214064	0.719527
	H2043	H	0.163816	-0.212640	0.715710
	H2044	H	0.148187	0.035974	0.655380
	H2045	H	0.163815	0.038049	0.658984
	H2046	H	0.164266	-0.533503	0.717947
	H2047	H	0.148709	-0.534793	0.721880
	H2048	H	0.211198	-0.532612	0.715766
	H2049	H	0.226806	-0.530842	0.719545
	H2050	H	0.210741	0.037961	0.657242
	H2051	H	0.226301	0.039867	0.653397
	Al2052	Al	0.187528	0.002792	0.687600
	Al2053	Al	0.187492	0.252822	0.687452
	Al2054	Al	0.125017	0.250097	0.624985
	Al2055	Al	0.125034	-0.000105	0.625018
	O2056	O	0.196868	0.042545	0.709497
	O2057	O	0.187519	0.127588	0.670512
	O2058	O	0.187577	0.377531	0.704415
	O2059	O	0.240863	0.046415	0.727178
	O2060	O	0.178368	0.044645	0.710148
	O2061	O	0.134377	0.039765	0.728300
	O2062	O	0.178156	0.212958	0.709333
	O2063	O	0.178402	0.294643	0.664805
	O2064	O	0.134359	0.289721	0.646859
	O2065	O	0.196629	0.210943	0.710147
	O2066	O	0.196834	0.292477	0.665460
	O2067	O	0.240888	0.296198	0.647656
	O2068	O	0.134100	0.208038	0.727272
	O2069	O	0.178123	0.462725	0.665666
	O2070	O	0.134095	0.457961	0.647754
	O2071	O	0.240661	0.464439	0.647092
	O2072	O	0.196656	0.460822	0.664724
	O2073	O	0.240660	0.214692	0.728058
	O2074	O	0.125023	0.375430	0.732910
	O2075	O	0.250007	0.129440	0.641955
	C2076	C	0.223014	0.219448	0.720210
	C2077	C	0.227659	0.129689	0.720894
	C2078	C	0.223292	0.039059	0.719259
	C2079	C	0.214496	0.038353	0.717150
	C2080	C	0.209850	0.127978	0.716430
	C2081	C	0.214212	0.218682	0.718073
	C2082	C	0.200440	0.127064	0.711819
	C2083	C	0.237076	0.130318	0.725495
	C2084	C	0.174571	0.128477	0.711803
	C2085	C	0.165148	0.127594	0.716479
	C2086	C	0.160476	0.217103	0.717032
	C2087	C	0.151672	0.216031	0.719202
	C2088	C	0.147314	0.125326	0.721052
	C2089	C	0.151969	0.035677	0.720401
	C2090	C	0.160768	0.036937	0.718255
	C2091	C	0.137923	0.124320	0.725741
	C2092	C	0.174557	0.378420	0.663226
	C2093	C	0.165154	0.377216	0.658460
	C2094	C	0.160491	0.466780	0.657840
	C2095	C	0.151694	0.465643	0.655713
	C2096	C	0.147334	0.375032	0.653917
	C2097	C	0.151988	0.285445	0.654472
	C2098	C	0.160779	0.286707	0.656613
	C2099	C	0.137934	0.374192	0.649352
	C2100	C	0.200440	0.376908	0.663036
	C2101	C	0.209835	0.377353	0.658367
	C2102	C	0.214477	0.287780	0.657754
	C2103	C	0.223270	0.288655	0.655659
	C2104	C	0.227655	0.379169	0.653976
	C2105	C	0.223013	0.468812	0.654670
	C2106	C	0.214221	0.467959	0.656781
	C2107	C	0.237062	0.380048	0.649442
	H2108	H	0.226778	0.218847	0.655254
	H2109	H	0.211158	0.217184	0.658845
	H2110	H	0.226324	0.289898	0.721419
	H2111	H	0.210710	0.288561	0.717721
	H2112	H	0.187550	0.127193	0.652173
	H2113	H	0.187649	0.377783	0.722793
	H2114	H	0.124999	0.375555	0.714555
	H2115	H	0.249906	0.129400	0.660257
	H2116	H	0.164280	0.216810	0.656804
	H2117	H	0.148699	0.214757	0.653189
	H2118	H	0.148147	0.285389	0.719477
	H2119	H	0.163728	0.287778	0.715748
	H2120	H	0.148180	0.535457	0.655298
	H2121	H	0.163771	0.537502	0.659017
	H2122	H	0.164307	-0.032871	0.717967
	H2123	H	0.148695	-0.035205	0.721647
	H2124	H	0.211194	-0.032338	0.716093
	H2125	H	0.226760	-0.030997	0.719681
	H2126	H	0.210732	0.538008	0.657116
	H2127	H	0.226308	0.539567	0.653536
	Al2128	Al	0.187508	-0.497054	0.812271
	Al2129	Al	0.187521	-0.247125	0.812371
	Al2130	Al	0.125000	-0.249864	0.749962
	Al2131	Al	0.125032	-0.499680	0.749926
	O2132	O	0.196898	-0.457558	0.834189
	O2133	O	0.187470	-0.372032	0.795369
	O2134	O	0.187457	-0.121943	0.829435
	O2135	O	0.240895	-0.452637	0.852208
	O2136	O	0.178397	-0.455154	0.835090
	O2137	O	0.134354	-0.460029	0.852991
	O2138	O	0.178140	-0.286731	0.834265
	O2139	O	0.178414	-0.205190	0.789532
	O2140	O	0.134339	-0.210052	0.771971
	O2141	O	0.196622	-0.289216	0.835082
	O2142	O	0.196861	-0.207589	0.790489
	O2143	O	0.240860	-0.203768	0.772549
	O2144	O	0.134180	-0.291596	0.852609
	O2145	O	0.178169	-0.036827	0.790397
	O2146	O	0.134134	-0.041655	0.772859
	O2147	O	0.240681	-0.035453	0.771993
	O2148	O	0.196656	-0.039052	0.789794
	O2149	O	0.240671	-0.284175	0.853076
	O2150	O	0.125010	-0.124536	0.857866
	O2151	O	0.249986	-0.370256	0.766990
	C2152	C	0.223043	-0.280107	0.845404
	C2153	C	0.227703	-0.369724	0.845961
	C2154	C	0.223332	-0.460366	0.844139
	C2155	C	0.214542	-0.461467	0.841912
	C2156	C	0.209867	-0.372057	0.841392
	C2157	C	0.214237	-0.281270	0.843185
	C2158	C	0.200462	-0.372991	0.836677
	C2159	C	0.237096	-0.368599	0.850618
	C2160	C	0.174593	-0.371217	0.836745
	C2161	C	0.165192	-0.372345	0.841534
	C2162	C	0.160529	-0.282899	0.841963
	C2163	C	0.151729	-0.284216	0.844200
	C2164	C	0.147373	-0.374876	0.846029
	C2165	C	0.152047	-0.464296	0.845553
	C2166	C	0.160844	-0.463036	0.843311
	C2167	C	0.137968	-0.375646	0.850769
	C2168	C	0.174594	-0.121431	0.787981
	C2169	C	0.165174	-0.122158	0.783458
	C2170	C	0.160505	-0.032643	0.782911
	C2171	C	0.151704	-0.033831	0.780744
	C2172	C	0.147348	-0.124671	0.779018
	C2173	C	0.152029	-0.214231	0.779478
	C2174	C	0.160827	-0.212985	0.781637
	C2175	C	0.137918	-0.125671	0.774430
	C2176	C	0.200441	-0.123174	0.788025
	C2177	C	0.209863	-0.122311	0.783428
	C2178	C	0.214510	-0.212121	0.782627
	C2179	C	0.223305	-0.211066	0.780529
	C2180	C	0.227677	-0.120213	0.778886
	C2181	C	0.223026	-0.030468	0.779543
	C2182	C	0.214237	-0.031619	0.781688
	C2183	C	0.237091	-0.119726	0.774321
	H2184	H	0.226830	-0.280784	0.780240
	H2185	H	0.211203	-0.282596	0.783877
	H2186	H	0.226332	-0.209608	0.846773
	H2187	H	0.210704	-0.211633	0.842878
	H2188	H	0.187361	-0.371912	0.776974
	H2189	H	0.187356	-0.121892	0.847867
	H2190	H	0.124956	-0.123947	0.839585
	H2191	H	0.250061	-0.369939	0.785364
	H2192	H	0.164343	-0.282857	0.781854
	H2193	H	0.148727	-0.284738	0.778122
	H2194	H	0.148206	-0.214782	0.844447
	H2195	H	0.163758	-0.211979	0.840537
	H2196	H	0.148228	0.036087	0.780365
	H2197	H	0.163786	0.038139	0.784190
	H2198	H	0.164379	-0.532639	0.842914
	H2199	H	0.148810	-0.535331	0.846797
	H2200	H	0.211293	-0.532174	0.840702
	H2201	H	0.226841	-0.530287	0.844531
	H2202	H	0.210756	0.038074	0.782135
	H2203	H	0.226332	0.040205	0.778432
	Al2204	Al	0.187525	0.002974	0.812427
	Al2205	Al	0.187510	0.252897	0.812316
	Al2206	Al	0.124981	0.250646	0.750006
	Al2207	Al	0.125034	0.000119	0.750108
	O2208	O	0.196842	0.042770	0.834379
	O2209	O	0.187474	0.127762	0.795253
	O2210	O	0.187535	0.377739	0.829408
	O2211	O	0.240848	0.047125	0.852233
	O2212	O	0.178397	0.045135	0.835206
	O2213	O	0.134366	0.040419	0.853139
	O2214	O	0.178113	0.213425	0.834063
	O2215	O	0.178397	0.295551	0.789592
	O2216	O	0.134351	0.290338	0.771877
	O2217	O	0.196608	0.211215	0.835131
	O2218	O	0.196875	0.292408	0.790423
	O2219	O	0.240863	0.296875	0.772653
	O2220	O	0.134122	0.208664	0.852062
	O2221	O	0.178121	0.463745	0.790564
	O2222	O	0.134150	0.458576	0.772644
	O2223	O	0.240659	0.465065	0.771836
	O2224	O	0.196614	0.460735	0.789533
	O2225	O	0.240619	0.215784	0.853113
	O2226	O	0.125082	0.375664	0.857997
	O2227	O	0.249989	0.129432	0.767039
	C2228	C	0.222995	0.219866	0.845348
	C2229	C	0.227640	0.130239	0.845945
	C2230	C	0.223261	0.039510	0.844311
	C2231	C	0.214460	0.038597	0.842090
	C2232	C	0.209828	0.128480	0.841390
	C2233	C	0.214202	0.219111	0.843184
	C2234	C	0.200424	0.127244	0.836762
	C2235	C	0.237055	0.131199	0.850636
	C2236	C	0.174589	0.128641	0.836747
	C2237	C	0.165168	0.127600	0.841472
	C2238	C	0.160522	0.217114	0.841998
	C2239	C	0.151724	0.216017	0.844113
	C2240	C	0.147350	0.125413	0.845942
	C2241	C	0.152001	0.035748	0.845400
	C2242	C	0.160808	0.036795	0.843263
	C2243	C	0.137926	0.124815	0.850544
	C2244	C	0.174558	0.379318	0.788054
	C2245	C	0.165142	0.377680	0.783572
	C2246	C	0.160464	0.467114	0.782981
	C2247	C	0.151668	0.466023	0.780848
	C2248	C	0.147324	0.375356	0.779034
	C2249	C	0.151997	0.285864	0.779579
	C2250	C	0.160787	0.287053	0.781730
	C2251	C	0.137932	0.374626	0.774351
	C2252	C	0.200445	0.376945	0.788067
	C2253	C	0.209842	0.377869	0.783359
	C2254	C	0.214485	0.288350	0.782789
	C2255	C	0.223276	0.289286	0.780635
	C2256	C	0.227655	0.379756	0.778898
	C2257	C	0.223013	0.469277	0.779424
	C2258	C	0.214212	0.468403	0.781671
	C2259	C	0.237046	0.380729	0.774184
	H2260	H	0.226764	0.219286	0.780096
	H2261	H	0.211211	0.217677	0.783987
	H2262	H	0.226290	0.290642	0.846482
	H2263	H	0.210725	0.289182	0.842707
	H2264	H	0.187454	0.127688	0.776924
	H2265	H	0.187517	0.377720	0.847773
	H2266	H	0.125235	0.375617	0.839625
	H2267	H	0.250075	0.129151	0.785350
	H2268	H	0.164329	0.217363	0.782036
	H2269	H	0.148725	0.215109	0.778369
	H2270	H	0.148257	0.286125	0.844345
	H2271	H	0.163811	0.287578	0.840659
	H2272	H	0.148113	0.535589	0.780560
	H2273	H	0.163713	0.537945	0.784212
	H2274	H	0.164313	-0.033256	0.842917
	H2275	H	0.148688	-0.034547	0.846786
	H2276	H	0.211147	-0.031859	0.840741
	H2277	H	0.226765	-0.030362	0.844671
	H2278	H	0.210711	0.538340	0.781982
	H2279	H	0.226296	0.539989	0.777903
	Al2280	Al	0.187521	-0.497247	0.937438
	Al2281	Al	0.187482	-0.247581	0.937498
	Al2282	Al	0.124987	-0.249606	0.874934
	Al2283	Al	0.125011	-0.499646	0.875024
	O2284	O	0.196892	-0.457748	0.959231
	O2285	O	0.187489	-0.372151	0.920392
	O2286	O	0.187500	-0.122297	0.954471
	O2287	O	0.240884	-0.453371	0.977083
	O2288	O	0.178346	-0.455196	0.960033
	O2289	O	0.134372	-0.460821	0.978164
	O2290	O	0.178125	-0.286913	0.959394
	O2291	O	0.178385	-0.205081	0.914675
	O2292	O	0.134335	-0.210069	0.896898
	O2293	O	0.196602	-0.289324	0.960261
	O2294	O	0.196853	-0.207397	0.915661
	O2295	O	0.240871	-0.202839	0.897785
	O2296	O	0.134098	-0.292292	0.977074
	O2297	O	0.178109	-0.036785	0.915512
	O2298	O	0.134122	-0.041657	0.897648
	O2299	O	0.240625	-0.034479	0.896879
	O2300	O	0.196604	-0.039167	0.914609
	O2301	O	0.240658	-0.285011	0.978047
	O2302	O	0.124949	-0.124863	0.982941
	O2303	O	0.250008	-0.369670	0.892029
	C2304	C	0.223003	-0.280503	0.970374
	C2305	C	0.227663	-0.370042	0.970955
	C2306	C	0.223293	-0.460708	0.969067
	C2307	C	0.214502	-0.461772	0.966922
	C2308	C	0.209837	-0.372122	0.966368
	C2309	C	0.214207	-0.281500	0.968225
	C2310	C	0.200442	-0.373183	0.961793
	C2311	C	0.237063	-0.369372	0.975571
	C2312	C	0.174524	-0.371476	0.961722
	C2313	C	0.165122	-0.372545	0.966342
	C2314	C	0.160446	-0.283064	0.966968
	C2315	C	0.151650	-0.284128	0.969145
	C2316	C	0.147313	-0.375113	0.970887
	C2317	C	0.151984	-0.464573	0.970388
	C2318	C	0.160783	-0.463459	0.968233
	C2319	C	0.137911	-0.376189	0.975468
	C2320	C	0.174558	-0.121493	0.913034
	C2321	C	0.165135	-0.122478	0.908477
	C2322	C	0.160488	-0.032928	0.907928
	C2323	C	0.151690	-0.034133	0.905761
	C2324	C	0.147320	-0.124784	0.903913
	C2325	C	0.151969	-0.214389	0.904602
	C2326	C	0.160764	-0.213211	0.906775
	C2327	C	0.137922	-0.125621	0.899355
	C2328	C	0.200426	-0.123123	0.913088
	C2329	C	0.209831	-0.121840	0.908583
	C2330	C	0.214486	-0.211533	0.908006
	C2331	C	0.223280	-0.210529	0.905864
	C2332	C	0.227653	-0.119917	0.904027
	C2333	C	0.223006	-0.030222	0.904557
	C2334	C	0.214208	-0.031253	0.906715
	C2335	C	0.237041	-0.119129	0.899402
	H2336	H	0.226801	-0.280376	0.905586
	H2337	H	0.211198	-0.282341	0.909273
	H2338	H	0.226295	-0.209909	0.971656
	H2339	H	0.210697	-0.211522	0.967978
	H2340	H	0.187487	-0.372355	0.901994
	H2341	H	0.187717	-0.121946	0.972836
	H2342	H	0.124969	-0.125001	0.964569
	H2343	H	0.250114	-0.369933	0.910407
	H2344	H	0.164287	-0.283191	0.907098
	H2345	H	0.148687	-0.285018	0.903360
	H2346	H	0.148126	-0.214623	0.969515
	H2347	H	0.163708	-0.212431	0.965728
	H2348	H	0.148192	0.035714	0.905454
	H2349	H	0.163759	0.037798	0.909176
	H2350	H	0.164316	-0.533188	0.968021
	H2351	H	0.148725	-0.535451	0.971703
	H2352	H	0.211221	-0.532440	0.965705
	H2353	H	0.226817	-0.530442	0.969434
	H2354	H	0.210699	0.038587	0.906943
	H2355	H	0.226284	0.040557	0.903239
	Al2356	Al	0.187478	0.002616	0.937359
	Al2357	Al	0.187517	0.252605	0.937567
	Al2358	Al	0.125010	0.250473	0.874956
	Al2359	Al	0.124988	0.000479	0.874963
	O2360	O	0.196864	0.042787	0.959438
	O2361	O	0.187514	0.127841	0.920437
	O2362	O	0.187486	0.377986	0.954579
	O2363	O	0.240923	0.047334	0.977079
	O2364	O	0.178393	0.044817	0.960340
	O2365	O	0.134340	0.040001	0.977932
	O2366	O	0.178138	0.213295	0.959492
	O2367	O	0.178420	0.294604	0.914609
	O2368	O	0.134372	0.290011	0.896915
	O2369	O	0.196663	0.211087	0.960183
	O2370	O	0.196840	0.292416	0.915551
	O2371	O	0.240841	0.296578	0.897769
	O2372	O	0.134184	0.208377	0.977496
	O2373	O	0.178131	0.462950	0.915519
	O2374	O	0.134142	0.458294	0.897711
	O2375	O	0.240683	0.465146	0.897051
	O2376	O	0.196642	0.460870	0.914794
	O2377	O	0.240680	0.215781	0.977931
	O2378	O	0.124980	0.374886	0.982942
	O2379	O	0.250000	0.129967	0.892036
	C2380	C	0.223030	0.219572	0.970488
	C2381	C	0.227694	0.130030	0.970985
	C2382	C	0.223334	0.039273	0.969088
	C2383	C	0.214529	0.038171	0.966986
	C2384	C	0.209868	0.127776	0.966527
	C2385	C	0.214226	0.218475	0.968372
	C2386	C	0.200443	0.127198	0.961854
	C2387	C	0.237112	0.131371	0.975486
	C2388	C	0.174560	0.128807	0.961857
	C2389	C	0.165152	0.127803	0.966422
	C2390	C	0.160485	0.217410	0.967045
	C2391	C	0.151692	0.216147	0.969229
	C2392	C	0.147347	0.125218	0.970894
	C2393	C	0.152012	0.035689	0.970479
	C2394	C	0.160803	0.036951	0.968289
	C2395	C	0.137949	0.124370	0.975699
	C2396	C	0.174582	0.378524	0.913097
	C2397	C	0.165177	0.377333	0.908308
	C2398	C	0.160527	0.466890	0.907919
	C2399	C	0.151735	0.465838	0.905749
	C2400	C	0.147350	0.375164	0.903936
	C2401	C	0.151989	0.285587	0.904401
	C2402	C	0.160777	0.286784	0.906549
	C2403	C	0.137958	0.374404	0.899245
	C2404	C	0.200443	0.376885	0.913153
	C2405	C	0.209842	0.377742	0.908521
	C2406	C	0.214491	0.288184	0.907854
	C2407	C	0.223283	0.289458	0.905717
	C2408	C	0.227667	0.380218	0.904114
	C2409	C	0.223003	0.469822	0.904591
	C2410	C	0.214204	0.468626	0.906724
	C2411	C	0.237066	0.380861	0.899432
	H2412	H	0.226779	0.219599	0.905260
	H2413	H	0.211197	0.217485	0.909046
	H2414	H	0.226310	0.290128	0.971741
	H2415	H	0.210731	0.288408	0.968079
	H2416	H	0.187565	0.127993	0.902091
	H2417	H	0.187640	0.378542	0.972925
	H2418	H	0.125049	0.375144	0.964622
	H2419	H	0.250201	0.130382	0.910315
	H2420	H	0.164284	0.216947	0.906877
	H2421	H	0.148703	0.214830	0.903035
	H2422	H	0.148165	0.285921	0.969581
	H2423	H	0.163775	0.288047	0.965771
	H2424	H	0.148238	0.535489	0.905423
	H2425	H	0.163833	0.537543	0.909289
	H2426	H	0.164309	-0.032822	0.967989
	H2427	H	0.148733	-0.035005	0.971857
	H2428	H	0.211234	-0.032525	0.965633
	H2429	H	0.226839	-0.030421	0.969240
	H2430	H	0.210703	0.538655	0.907043
	H2431	H	0.226307	0.540437	0.903300
	Al2432	Al	0.312504	-0.493478	0.062451
	Al2433	Al	0.312480	-0.243826	0.062184
	Al2434	Al	0.249968	-0.244993	0.000010
	Al2435	Al	0.250015	-0.494852	-0.000132
	O2436	O	0.321830	-0.453444	0.084397
	O2437	O	0.312488	-0.368723	0.045242
	O2438	O	0.312487	-0.118878	0.079201
	O2439	O	0.365796	-0.451963	0.102578
	O2440	O	0.303354	-0.451515	0.084998
	O2441	O	0.259330	-0.455222	0.103101
	O2442	O	0.303182	-0.283406	0.084372
	O2443	O	0.303342	-0.202004	0.039576
	O2444	O	0.259300	-0.205354	0.022010
	O2445	O	0.321656	-0.285129	0.084782
	O2446	O	0.321811	-0.203973	0.040120
	O2447	O	0.365845	-0.201404	0.022575
	O2448	O	0.259122	-0.286818	0.102282
	O2449	O	0.303185	-0.033614	0.040107
	O2450	O	0.259053	-0.037028	0.022848
	O2451	O	0.365690	-0.033095	0.022350
	O2452	O	0.321667	-0.035462	0.039699
	O2453	O	0.365657	-0.283614	0.102894
	O2454	O	0.249944	-0.119859	0.107965
	O2455	O	0.375011	-0.368515	0.017179
	C2456	C	0.348055	-0.277892	0.095050
	C2457	C	0.352648	-0.367773	0.095936
	C2458	C	0.348230	-0.458043	0.094325
	C2459	C	0.339443	-0.458765	0.092036
	C2460	C	0.334843	-0.368838	0.091269
	C2461	C	0.339272	-0.278519	0.092775
	C2462	C	0.325433	-0.369082	0.086620
	C2463	C	0.362035	-0.367736	0.100716
	C2464	C	0.299559	-0.367552	0.086644
	C2465	C	0.290127	-0.368140	0.091297
	C2466	C	0.285475	-0.278655	0.091993
	C2467	C	0.276678	-0.279485	0.094182
	C2468	C	0.272300	-0.370127	0.095839
	C2469	C	0.276967	-0.459633	0.095294
	C2470	C	0.285755	-0.458721	0.093097
	C2471	C	0.262910	-0.370780	0.100676
	C2472	C	0.299559	-0.117868	0.037835
	C2473	C	0.290132	-0.118320	0.033342
	C2474	C	0.285499	-0.028654	0.032708
	C2475	C	0.276693	-0.029332	0.030669
	C2476	C	0.272298	-0.119997	0.028969
	C2477	C	0.276938	-0.209627	0.029597
	C2478	C	0.285739	-0.208883	0.031633
	C2479	C	0.262880	-0.120786	0.024363
	C2480	C	0.325432	-0.119596	0.037855
	C2481	C	0.334857	-0.119063	0.033357
	C2482	C	0.339481	-0.208883	0.032568
	C2483	C	0.348274	-0.208428	0.030551
	C2484	C	0.352674	-0.117973	0.029031
	C2485	C	0.348045	-0.028116	0.029712
	C2486	C	0.339256	-0.028595	0.031750
	C2487	C	0.362071	-0.117366	0.024507
	H2488	H	0.351774	-0.278206	0.030157
	H2489	H	0.336171	-0.279159	0.033626
	H2490	H	0.351387	-0.207579	0.096062
	H2491	H	0.335795	-0.208367	0.092097
	H2492	H	0.312450	-0.368793	0.026942
	H2493	H	0.312544	-0.119092	0.097531
	H2494	H	0.249800	-0.120291	0.089515
	H2495	H	0.375169	-0.368941	0.035600
	H2496	H	0.289195	-0.278916	0.031985
	H2497	H	0.273622	-0.279933	0.028482
	H2498	H	0.273175	-0.209852	0.094571
	H2499	H	0.288782	-0.207904	0.090674
	H2500	H	0.273211	0.040768	0.030388
	H2501	H	0.288824	0.041763	0.034004
	H2502	H	0.289248	-0.528670	0.092676
	H2503	H	0.273687	-0.530429	0.096549
	H2504	H	0.336106	-0.529109	0.090805
	H2505	H	0.351704	-0.527888	0.094784
	H2506	H	0.335747	0.041298	0.032170
	H2507	H	0.351380	0.042332	0.028603
	Al2508	Al	0.312495	0.006158	0.062254
	Al2509	Al	0.312490	0.256220	0.062448
	Al2510	Al	0.250000	0.255255	-0.000093
	Al2511	Al	0.250008	0.005011	-0.000067
	O2512	O	0.321832	0.045603	0.084284
	O2513	O	0.312526	0.131203	0.045423
	O2514	O	0.312505	0.381245	0.079433
	O2515	O	0.365816	0.047548	0.102314
	O2516	O	0.303335	0.047717	0.084967
	O2517	O	0.259345	0.044734	0.103169
	O2518	O	0.303165	0.216098	0.084403
	O2519	O	0.303383	0.298292	0.039681
	O2520	O	0.259333	0.295197	0.021871
	O2521	O	0.321653	0.214122	0.085046
	O2522	O	0.321796	0.296041	0.040316
	O2523	O	0.365779	0.298495	0.022404
	O2524	O	0.259124	0.212994	0.102245
	O2525	O	0.303195	0.466700	0.040266
	O2526	O	0.259171	0.463528	0.022514
	O2527	O	0.365625	0.466572	0.022015
	O2528	O	0.321643	0.464368	0.039916
	O2529	O	0.365701	0.215778	0.102794
	O2530	O	0.249993	0.379954	0.108000
	O2531	O	0.374986	0.131628	0.017114
	C2532	C	0.348050	0.221248	0.095170
	C2533	C	0.352656	0.131269	0.095935
	C2534	C	0.348223	0.040900	0.094453
	C2535	C	0.339426	0.040471	0.092244
	C2536	C	0.334824	0.130455	0.091427
	C2537	C	0.339250	0.220823	0.092966
	C2538	C	0.325439	0.130001	0.086653
	C2539	C	0.362070	0.131606	0.100524
	C2540	C	0.299558	0.131694	0.086763
	C2541	C	0.290142	0.131272	0.091412
	C2542	C	0.285498	0.220911	0.092046
	C2543	C	0.276705	0.220184	0.094219
	C2544	C	0.272323	0.129659	0.095951
	C2545	C	0.276964	0.040053	0.095404
	C2546	C	0.285759	0.040791	0.093244
	C2547	C	0.262913	0.128991	0.100613
	C2548	C	0.299591	0.382300	0.037917
	C2549	C	0.290175	0.381527	0.033441
	C2550	C	0.285546	0.471329	0.032734
	C2551	C	0.276752	0.470451	0.030669
	C2552	C	0.272365	0.379930	0.028966
	C2553	C	0.277000	0.290201	0.029666
	C2554	C	0.285801	0.291003	0.031765
	C2555	C	0.262944	0.379318	0.024182
	C2556	C	0.325416	0.380275	0.038100
	C2557	C	0.334799	0.380592	0.033451
	C2558	C	0.339425	0.290991	0.032782
	C2559	C	0.348211	0.291681	0.030569
	C2560	C	0.352610	0.382150	0.028961
	C2561	C	0.347989	0.471782	0.029671
	C2562	C	0.339200	0.471069	0.031858
	C2563	C	0.361985	0.382396	0.024179
	H2564	H	0.351673	0.221620	0.030023
	H2565	H	0.336105	0.220615	0.033978
	H2566	H	0.351369	0.291959	0.096204
	H2567	H	0.335786	0.290904	0.092340
	H2568	H	0.312655	0.131286	0.027046
	H2569	H	0.312521	0.381099	0.097777
	H2570	H	0.250161	0.380261	0.089537
	H2571	H	0.374965	0.131762	0.035463
	H2572	H	0.289305	0.221092	0.032286
	H2573	H	0.273721	0.219657	0.028610
	H2574	H	0.273207	0.290037	0.094664
	H2575	H	0.288813	0.291554	0.090914
	H2576	H	0.273249	0.540358	0.030362
	H2577	H	0.288836	0.542126	0.033975
	H2578	H	0.289258	-0.029089	0.093059
	H2579	H	0.273672	-0.030352	0.096760
	H2580	H	0.336130	-0.029843	0.091035
	H2581	H	0.351702	-0.029052	0.094856
	H2582	H	0.335712	0.540977	0.032298
	H2583	H	0.351300	0.542099	0.028515
	Al2584	Al	0.312506	-0.493841	0.187319
	Al2585	Al	0.312466	-0.243599	0.187336
	Al2586	Al	0.249981	-0.244913	0.124991
	Al2587	Al	0.249979	-0.494913	0.125021
	O2588	O	0.321798	-0.453578	0.209357
	O2589	O	0.312428	-0.368636	0.170312
	O2590	O	0.312470	-0.118681	0.204321
	O2591	O	0.365806	-0.451997	0.227535
	O2592	O	0.303366	-0.451673	0.210161
	O2593	O	0.259311	-0.455050	0.228084
	O2594	O	0.303152	-0.283186	0.209497
	O2595	O	0.303344	-0.201677	0.164684
	O2596	O	0.259320	-0.205741	0.146924
	O2597	O	0.321605	-0.285289	0.209923
	O2598	O	0.321819	-0.203629	0.165344
	O2599	O	0.365823	-0.202031	0.147640
	O2600	O	0.259123	-0.286753	0.227209
	O2601	O	0.303134	-0.033086	0.165326
	O2602	O	0.259075	-0.037226	0.147729
	O2603	O	0.365694	-0.033989	0.147092
	O2604	O	0.321620	-0.035325	0.164575
	O2605	O	0.365640	-0.283327	0.227996
	O2606	O	0.249921	-0.119625	0.232715
	O2607	O	0.374953	-0.369026	0.141926
	C2608	C	0.348027	-0.278454	0.220129
	C2609	C	0.352628	-0.368352	0.220979
	C2610	C	0.348195	-0.458711	0.219422
	C2611	C	0.339405	-0.459032	0.217197
	C2612	C	0.334804	-0.369123	0.216435
	C2613	C	0.339238	-0.278805	0.217895
	C2614	C	0.325392	-0.369372	0.211685
	C2615	C	0.362040	-0.367990	0.225753
	C2616	C	0.299564	-0.367903	0.211810
	C2617	C	0.290144	-0.368505	0.216468
	C2618	C	0.285507	-0.278801	0.217024
	C2619	C	0.276707	-0.279588	0.219103
	C2620	C	0.272317	-0.370171	0.220951
	C2621	C	0.276933	-0.459986	0.220285
	C2622	C	0.285749	-0.459182	0.218153
	C2623	C	0.262909	-0.370611	0.225612
	C2624	C	0.299544	-0.117437	0.162982
	C2625	C	0.290129	-0.118407	0.158403
	C2626	C	0.285494	-0.028641	0.157832
	C2627	C	0.276692	-0.029750	0.155743
	C2628	C	0.272314	-0.120389	0.153927
	C2629	C	0.276947	-0.210148	0.154558
	C2630	C	0.285742	-0.209027	0.156686
	C2631	C	0.262891	-0.121206	0.149420
	C2632	C	0.325392	-0.119171	0.162891
	C2633	C	0.334823	-0.118959	0.158221
	C2634	C	0.339435	-0.208721	0.157590
	C2635	C	0.348219	-0.208237	0.155486
	C2636	C	0.352645	-0.118046	0.153916
	C2637	C	0.348053	-0.028181	0.154722
	C2638	C	0.339254	-0.028598	0.156798
	C2639	C	0.362070	-0.118071	0.149383
	H2640	H	0.351641	-0.278624	0.154927
	H2641	H	0.336092	-0.279144	0.158607
	H2642	H	0.351357	-0.208148	0.221216
	H2643	H	0.335763	-0.208854	0.217308
	H2644	H	0.312362	-0.368668	0.152103
	H2645	H	0.312419	-0.118542	0.222652
	H2646	H	0.249762	-0.119210	0.214456
	H2647	H	0.375006	-0.369155	0.160306
	H2648	H	0.289235	-0.278888	0.156964
	H2649	H	0.273655	-0.280729	0.153316
	H2650	H	0.273229	-0.209542	0.219446
	H2651	H	0.288789	-0.208135	0.215913
	H2652	H	0.273174	0.040146	0.155369
	H2653	H	0.288803	0.042105	0.158946
	H2654	H	0.289242	-0.529241	0.217861
	H2655	H	0.273610	-0.530397	0.221485
	H2656	H	0.336087	-0.529587	0.216044
	H2657	H	0.351643	-0.528718	0.219980
	H2658	H	0.335814	0.041618	0.157098
	H2659	H	0.351413	0.042013	0.153550
	Al2660	Al	0.312497	0.006639	0.187335
	Al2661	Al	0.312473	0.256495	0.187291
	Al2662	Al	0.249990	0.255012	0.124985
	Al2663	Al	0.249992	0.004861	0.124944
	O2664	O	0.321785	0.046338	0.209398
	O2665	O	0.312446	0.131555	0.170339
	O2666	O	0.312524	0.381198	0.204425
	O2667	O	0.365821	0.048076	0.227594
	O2668	O	0.303373	0.048883	0.210228
	O2669	O	0.259342	0.045415	0.228084
	O2670	O	0.303100	0.216900	0.209100
	O2671	O	0.303324	0.298737	0.164687
	O2672	O	0.259323	0.294325	0.146979
	O2673	O	0.321668	0.214936	0.209909
	O2674	O	0.321814	0.296326	0.165347
	O2675	O	0.365806	0.297701	0.147408
	O2676	O	0.259104	0.213533	0.227272
	O2677	O	0.303135	0.466889	0.165529
	O2678	O	0.259107	0.462594	0.147815
	O2679	O	0.365700	0.466092	0.147102
	O2680	O	0.321674	0.464737	0.164814
	O2681	O	0.365689	0.216362	0.227944
	O2682	O	0.249971	0.380520	0.232925
	O2683	O	0.374989	0.131232	0.141917
	C2684	C	0.348031	0.221873	0.220114
	C2685	C	0.352658	0.132013	0.220921
	C2686	C	0.348238	0.041662	0.219440
	C2687	C	0.339442	0.041116	0.217231
	C2688	C	0.334828	0.131002	0.216322
	C2689	C	0.339239	0.221332	0.217880
	C2690	C	0.325444	0.130753	0.211636
	C2691	C	0.362044	0.132279	0.225704
	C2692	C	0.299534	0.132438	0.211768
	C2693	C	0.290146	0.131619	0.216391
	C2694	C	0.285523	0.221344	0.217066
	C2695	C	0.276730	0.220726	0.219189
	C2696	C	0.272327	0.130357	0.220949
	C2697	C	0.276963	0.040638	0.220378
	C2698	C	0.285743	0.041280	0.218208
	C2699	C	0.262921	0.129607	0.225642
	C2700	C	0.299542	0.382637	0.163117
	C2701	C	0.290145	0.381796	0.158262
	C2702	C	0.285482	0.471163	0.157781
	C2703	C	0.276687	0.470037	0.155541
	C2704	C	0.272324	0.379538	0.153749
	C2705	C	0.276983	0.290089	0.154317
	C2706	C	0.285786	0.291199	0.156532
	C2707	C	0.262926	0.378709	0.149264
	C2708	C	0.325429	0.380613	0.162965
	C2709	C	0.334831	0.381078	0.158269
	C2710	C	0.339421	0.291057	0.157485
	C2711	C	0.348211	0.291306	0.155305
	C2712	C	0.352638	0.381596	0.153727
	C2713	C	0.348053	0.471623	0.154634
	C2714	C	0.339257	0.471409	0.156767
	C2715	C	0.362053	0.381833	0.149196
	H2716	H	0.351689	0.221363	0.154952
	H2717	H	0.336093	0.220580	0.158573
	H2718	H	0.351348	0.292517	0.221278
	H2719	H	0.335775	0.291445	0.217323
	H2720	H	0.312449	0.131597	0.151998
	H2721	H	0.312545	0.381567	0.222730
	H2722	H	0.250084	0.380639	0.214647
	H2723	H	0.374957	0.131753	0.160268
	H2724	H	0.289298	0.221495	0.156903
	H2725	H	0.273731	0.219337	0.153070
	H2726	H	0.273225	0.290441	0.219428
	H2727	H	0.288826	0.291970	0.215797
	H2728	H	0.273176	0.540059	0.155261
	H2729	H	0.288726	0.541811	0.159148
	H2730	H	0.289244	-0.028583	0.217796
	H2731	H	0.273663	-0.030130	0.221560
	H2732	H	0.336118	-0.029322	0.216185
	H2733	H	0.351705	-0.028317	0.220053
	H2734	H	0.335780	0.541406	0.157324
	H2735	H	0.351374	0.542114	0.153695
	Al2736	Al	0.312490	-0.493405	0.312405
	Al2737	Al	0.312507	-0.243312	0.312415
	Al2738	Al	0.249972	-0.244695	0.249847
	Al2739	Al	0.249934	-0.494609	0.250005
	O2740	O	0.321779	-0.453431	0.334504
	O2741	O	0.312488	-0.368507	0.295327
	O2742	O	0.312475	-0.118351	0.329453
	O2743	O	0.365784	-0.452717	0.352414
	O2744	O	0.303373	-0.451513	0.335119
	O2745	O	0.259384	-0.455338	0.353054
	O2746	O	0.303199	-0.283114	0.334487
	O2747	O	0.303276	-0.201749	0.289989
	O2748	O	0.259323	-0.204894	0.271679
	O2749	O	0.321692	-0.285030	0.334936
	O2750	O	0.321803	-0.203347	0.290494
	O2751	O	0.365831	-0.201991	0.272512
	O2752	O	0.259138	-0.286991	0.352124
	O2753	O	0.303109	-0.033373	0.290548
	O2754	O	0.259093	-0.036761	0.272519
	O2755	O	0.365669	-0.033954	0.271895
	O2756	O	0.321628	-0.035278	0.289990
	O2757	O	0.365730	-0.284169	0.352761
	O2758	O	0.249963	-0.119873	0.357895
	O2759	O	0.374960	-0.368818	0.267005
	C2760	C	0.348061	-0.278185	0.345227
	C2761	C	0.352649	-0.368306	0.345954
	C2762	C	0.348219	-0.458683	0.344467
	C2763	C	0.339415	-0.459088	0.342260
	C2764	C	0.334837	-0.368989	0.341402
	C2765	C	0.339265	-0.278635	0.343066
	C2766	C	0.325432	-0.369517	0.336768
	C2767	C	0.362069	-0.368224	0.350541
	C2768	C	0.299587	-0.367557	0.336779
	C2769	C	0.290184	-0.367843	0.341552
	C2770	C	0.285544	-0.278217	0.342172
	C2771	C	0.276743	-0.279084	0.344268
	C2772	C	0.272367	-0.369858	0.345974
	C2773	C	0.277010	-0.459434	0.345470
	C2774	C	0.285803	-0.458471	0.343311
	C2775	C	0.262952	-0.370811	0.350587
	C2776	C	0.299508	-0.117718	0.288241
	C2777	C	0.290103	-0.118478	0.283580
	C2778	C	0.285470	-0.028688	0.282841
	C2779	C	0.276686	-0.029387	0.280669
	C2780	C	0.272309	-0.119901	0.278833
	C2781	C	0.276941	-0.209746	0.279503
	C2782	C	0.285723	-0.209055	0.281706
	C2783	C	0.262890	-0.120574	0.274198
	C2784	C	0.325414	-0.119144	0.288197
	C2785	C	0.334808	-0.118896	0.283489
	C2786	C	0.339397	-0.208841	0.282680
	C2787	C	0.348188	-0.208417	0.280390
	C2788	C	0.352647	-0.118356	0.278720
	C2789	C	0.348056	-0.028292	0.279623
	C2790	C	0.339256	-0.028677	0.281932
	C2791	C	0.362041	-0.118143	0.274199
	H2792	H	0.351635	-0.278881	0.279913
	H2793	H	0.336069	-0.279276	0.283717
	H2794	H	0.351397	-0.207689	0.346315
	H2795	H	0.335804	-0.208608	0.342623
	H2796	H	0.312377	-0.368915	0.276937
	H2797	H	0.312429	-0.117837	0.347774
	H2798	H	0.249970	-0.119589	0.339626
	H2799	H	0.374772	-0.369315	0.285400
	H2800	H	0.289248	-0.278735	0.281870
	H2801	H	0.273643	-0.280136	0.278104
	H2802	H	0.273260	-0.209144	0.344616
	H2803	H	0.288859	-0.207926	0.340941
	H2804	H	0.273183	0.040243	0.280220
	H2805	H	0.288756	0.041972	0.283987
	H2806	H	0.289276	-0.528413	0.342989
	H2807	H	0.273680	-0.529937	0.346842
	H2808	H	0.336084	-0.529457	0.341187
	H2809	H	0.351689	-0.528649	0.344923
	H2810	H	0.335769	0.041262	0.282370
	H2811	H	0.351426	0.042098	0.278522
	Al2812	Al	0.312463	0.006740	0.312451
	Al2813	Al	0.312510	0.256793	0.312528
	Al2814	Al	0.249950	0.255123	0.249898
	Al2815	Al	0.249948	0.005468	0.249802
	O2816	O	0.321785	0.046160	0.334553
	O2817	O	0.312470	0.131483	0.295496
	O2818	O	0.312464	0.381664	0.329548
	O2819	O	0.365815	0.047103	0.352348
	O2820	O	0.303359	0.048562	0.335143
	O2821	O	0.259306	0.044729	0.352903
	O2822	O	0.303142	0.217024	0.334386
	O2823	O	0.303323	0.298496	0.289808
	O2824	O	0.259272	0.295079	0.271924
	O2825	O	0.321641	0.214365	0.335244
	O2826	O	0.321825	0.295847	0.290433
	O2827	O	0.365826	0.297657	0.272497
	O2828	O	0.259135	0.212858	0.352258
	O2829	O	0.303122	0.466890	0.290387
	O2830	O	0.259090	0.463630	0.272692
	O2831	O	0.365709	0.466107	0.272019
	O2832	O	0.321679	0.464319	0.290107
	O2833	O	0.365736	0.215652	0.352528
	O2834	O	0.249963	0.380195	0.357944
	O2835	O	0.375017	0.131276	0.266991
	C2836	C	0.348060	0.221151	0.345167
	C2837	C	0.352659	0.131190	0.345841
	C2838	C	0.348228	0.040804	0.344442
	C2839	C	0.339416	0.040409	0.342397
	C2840	C	0.334823	0.130374	0.341639
	C2841	C	0.339248	0.220757	0.343165
	C2842	C	0.325419	0.130373	0.336916
	C2843	C	0.362074	0.131455	0.350413
	C2844	C	0.299554	0.132750	0.336763
	C2845	C	0.290143	0.131737	0.341401
	C2846	C	0.285503	0.221463	0.342051
	C2847	C	0.276707	0.220243	0.344208
	C2848	C	0.272332	0.129733	0.346006
	C2849	C	0.276977	0.039938	0.345402
	C2850	C	0.285775	0.041115	0.343234
	C2851	C	0.262921	0.128820	0.350568
	C2852	C	0.299533	0.382427	0.288088
	C2853	C	0.290118	0.381718	0.283445
	C2854	C	0.285473	0.471371	0.282906
	C2855	C	0.276676	0.470644	0.280719
	C2856	C	0.272288	0.380006	0.278922
	C2857	C	0.276928	0.290288	0.279558
	C2858	C	0.285718	0.291144	0.281713
	C2859	C	0.262882	0.379658	0.274200
	C2860	C	0.325436	0.380277	0.288193
	C2861	C	0.334852	0.380702	0.283710
	C2862	C	0.339468	0.290795	0.282981
	C2863	C	0.348263	0.291353	0.280672
	C2864	C	0.352668	0.381932	0.279015
	C2865	C	0.348054	0.471778	0.279748
	C2866	C	0.339257	0.471194	0.282001
	C2867	C	0.362079	0.382062	0.274223
	H2868	H	0.351725	0.221454	0.280327
	H2869	H	0.336133	0.220198	0.284305
	H2870	H	0.351384	0.291841	0.346257
	H2871	H	0.335794	0.291087	0.342681
	H2872	H	0.312386	0.131252	0.277152
	H2873	H	0.312236	0.382117	0.347977
	H2874	H	0.249946	0.379919	0.339574
	H2875	H	0.374954	0.131307	0.285308
	H2876	H	0.289203	0.221310	0.282182
	H2877	H	0.273636	0.219692	0.278393
	H2878	H	0.273189	0.290134	0.344549
	H2879	H	0.288764	0.292137	0.340889
	H2880	H	0.273167	0.540322	0.280429
	H2881	H	0.288767	0.541883	0.284328
	H2882	H	0.289308	-0.028471	0.342906
	H2883	H	0.273686	-0.030785	0.346658
	H2884	H	0.336090	-0.029842	0.341266
	H2885	H	0.351678	-0.029332	0.344987
	H2886	H	0.335800	0.541358	0.282570
	H2887	H	0.351393	0.542375	0.278681
	Al2888	Al	0.312497	-0.494329	0.437533
	Al2889	Al	0.312484	-0.244254	0.437396
	Al2890	Al	0.249988	-0.245209	0.374989
	Al2891	Al	0.250016	-0.495017	0.374896
	O2892	O	0.321804	-0.454607	0.459594
	O2893	O	0.312498	-0.369280	0.420492
	O2894	O	0.312495	-0.119509	0.454496
	O2895	O	0.365822	-0.452135	0.477284
	O2896	O	0.303372	-0.452680	0.460266
	O2897	O	0.259356	-0.456578	0.478211
	O2898	O	0.303168	-0.284171	0.459480
	O2899	O	0.303345	-0.202160	0.414811
	O2900	O	0.259345	-0.205572	0.396756
	O2901	O	0.321643	-0.286020	0.460120
	O2902	O	0.321768	-0.204047	0.415276
	O2903	O	0.365868	-0.202389	0.397630
	O2904	O	0.259158	-0.288067	0.477348
	O2905	O	0.303117	-0.033687	0.415657
	O2906	O	0.259129	-0.037275	0.397459
	O2907	O	0.365702	-0.034098	0.397055
	O2908	O	0.321679	-0.035778	0.415018
	O2909	O	0.365664	-0.283710	0.477963
	O2910	O	0.249984	-0.120863	0.482998
	O2911	O	0.374964	-0.369455	0.392033
	C2912	C	0.348019	-0.278685	0.470203
	C2913	C	0.352637	-0.368469	0.470886
	C2914	C	0.348247	-0.459080	0.469112
	C2915	C	0.339439	-0.459895	0.467025
	C2916	C	0.334816	-0.370046	0.466500
	C2917	C	0.339215	-0.279569	0.468100
	C2918	C	0.325424	-0.370273	0.461820
	C2919	C	0.362044	-0.367938	0.475585
	C2920	C	0.299566	-0.368685	0.461797
	C2921	C	0.290164	-0.369489	0.466467
	C2922	C	0.285532	-0.279661	0.467204
	C2923	C	0.276732	-0.280561	0.469361
	C2924	C	0.272344	-0.371173	0.470954
	C2925	C	0.276977	-0.460860	0.470369
	C2926	C	0.285767	-0.459982	0.468167
	C2927	C	0.262946	-0.372184	0.475730
	C2928	C	0.299557	-0.118207	0.413092
	C2929	C	0.290147	-0.118627	0.408479
	C2930	C	0.285510	-0.028840	0.407908
	C2931	C	0.276728	-0.029801	0.405697
	C2932	C	0.272326	-0.120422	0.403910
	C2933	C	0.276960	-0.210226	0.404669
	C2934	C	0.285750	-0.209285	0.406812
	C2935	C	0.262924	-0.121037	0.399209
	C2936	C	0.325431	-0.120001	0.413131
	C2937	C	0.334833	-0.119602	0.408479
	C2938	C	0.339442	-0.209605	0.407842
	C2939	C	0.348234	-0.209176	0.405715
	C2940	C	0.352670	-0.118902	0.404031
	C2941	C	0.348063	-0.029025	0.404646
	C2942	C	0.339267	-0.029329	0.406801
	C2943	C	0.362077	-0.118426	0.399238
	H2944	H	0.351703	-0.279304	0.405412
	H2945	H	0.336099	-0.280022	0.409141
	H2946	H	0.351326	-0.207932	0.471407
	H2947	H	0.335733	-0.209519	0.467793
	H2948	H	0.312643	-0.369521	0.402183
	H2949	H	0.312483	-0.120281	0.472814
	H2950	H	0.249861	-0.120606	0.464674
	H2951	H	0.374850	-0.369733	0.410365
	H2952	H	0.289242	-0.279157	0.407187
	H2953	H	0.273644	-0.280650	0.403521
	H2954	H	0.273221	-0.211036	0.469842
	H2955	H	0.288811	-0.208975	0.465967
	H2956	H	0.273212	0.039959	0.405330
	H2957	H	0.288810	0.041658	0.409158
	H2958	H	0.289255	-0.529832	0.467779
	H2959	H	0.273686	-0.531698	0.471557
	H2960	H	0.336138	-0.530298	0.465832
	H2961	H	0.351732	-0.529049	0.469558
	H2962	H	0.335802	0.041028	0.407305
	H2963	H	0.351406	0.041316	0.403484
	Al2964	Al	0.312501	0.005457	0.437529
	Al2965	Al	0.312478	0.255815	0.437508
	Al2966	Al	0.249974	0.254836	0.375021
	Al2967	Al	0.249966	0.004838	0.374986
	O2968	O	0.321787	0.045481	0.459610
	O2969	O	0.312494	0.130878	0.420497
	O2970	O	0.312490	0.380912	0.454568
	O2971	O	0.365820	0.048279	0.477190
	O2972	O	0.303368	0.047746	0.460304
	O2973	O	0.259312	0.043839	0.478018
	O2974	O	0.303154	0.216036	0.459417
	O2975	O	0.303332	0.297988	0.414964
	O2976	O	0.259340	0.294690	0.396772
	O2977	O	0.321620	0.214020	0.460194
	O2978	O	0.321850	0.295561	0.415652
	O2979	O	0.365845	0.297265	0.397400
	O2980	O	0.259139	0.212657	0.477270
	O2981	O	0.303158	0.466222	0.415542
	O2982	O	0.259111	0.462905	0.397566
	O2983	O	0.365699	0.465348	0.396950
	O2984	O	0.321671	0.463780	0.414903
	O2985	O	0.365657	0.216547	0.477791
	O2986	O	0.249973	0.379230	0.482928
	O2987	O	0.374998	0.130806	0.391953
	C2988	C	0.347997	0.221838	0.470231
	C2989	C	0.352619	0.132162	0.470916
	C2990	C	0.348244	0.041436	0.469200
	C2991	C	0.339446	0.040543	0.467085
	C2992	C	0.334812	0.130276	0.466400
	C2993	C	0.339197	0.220921	0.468115
	C2994	C	0.325386	0.129813	0.461877
	C2995	C	0.362044	0.132316	0.475442
	C2996	C	0.299558	0.131690	0.461865
	C2997	C	0.290137	0.130932	0.466529
	C2998	C	0.285491	0.220566	0.467285
	C2999	C	0.276689	0.219574	0.469430
	C3000	C	0.272316	0.128999	0.471040
	C3001	C	0.276961	0.039301	0.470429
	C3002	C	0.285761	0.040155	0.468274
	C3003	C	0.262909	0.128361	0.475644
	C3004	C	0.299539	0.381949	0.413245
	C3005	C	0.290143	0.381467	0.408475
	C3006	C	0.285516	0.471188	0.407883
	C3007	C	0.276719	0.470249	0.405658
	C3008	C	0.272323	0.379778	0.403791
	C3009	C	0.276943	0.289965	0.404581
	C3010	C	0.285749	0.290931	0.406783
	C3011	C	0.262922	0.379179	0.399230
	C3012	C	0.325433	0.379909	0.413231
	C3013	C	0.334848	0.380330	0.408454
	C3014	C	0.339443	0.290427	0.407778
	C3015	C	0.348239	0.290632	0.405573
	C3016	C	0.352656	0.380951	0.403740
	C3017	C	0.348059	0.470878	0.404487
	C3018	C	0.339263	0.470638	0.406723
	C3019	C	0.362061	0.381209	0.399192
	H3020	H	0.351682	0.220254	0.405082
	H3021	H	0.336115	0.219972	0.408903
	H3022	H	0.351294	0.292151	0.471347
	H3023	H	0.335724	0.290785	0.467699
	H3024	H	0.312594	0.130632	0.402179
	H3025	H	0.312479	0.380100	0.472911
	H3026	H	0.249921	0.379519	0.464526
	H3027	H	0.374947	0.131595	0.410327
	H3028	H	0.289254	0.221094	0.407049
	H3029	H	0.273638	0.219347	0.403350
	H3030	H	0.273224	0.289628	0.469937
	H3031	H	0.288801	0.291107	0.466144
	H3032	H	0.273249	0.540296	0.405178
	H3033	H	0.288822	0.541814	0.408998
	H3034	H	0.289263	-0.029764	0.467946
	H3035	H	0.273660	-0.031141	0.471713
	H3036	H	0.336137	-0.029866	0.465856
	H3037	H	0.351756	-0.028412	0.469491
	H3038	H	0.335795	0.540681	0.406984
	H3039	H	0.351376	0.541410	0.403169
	Al3040	Al	0.312468	-0.494409	0.562512
	Al3041	Al	0.312504	-0.244495	0.562466
	Al3042	Al	0.250024	-0.246000	0.500041
	Al3043	Al	0.250006	-0.496102	0.500051
	O3044	O	0.321823	-0.454329	0.584444
	O3045	O	0.312511	-0.369177	0.545417
	O3046	O	0.312454	-0.119415	0.579440
	O3047	O	0.365876	-0.451713	0.602213
	O3048	O	0.303354	-0.452114	0.585147
	O3049	O	0.259348	-0.455687	0.602859
	O3050	O	0.303168	-0.284096	0.584422
	O3051	O	0.303372	-0.202179	0.539696
	O3052	O	0.259353	-0.206194	0.522049
	O3053	O	0.321633	-0.286129	0.585314
	O3054	O	0.321858	-0.205044	0.540632
	O3055	O	0.365874	-0.201716	0.522503
	O3056	O	0.259152	-0.287287	0.602463
	O3057	O	0.303148	-0.033681	0.540419
	O3058	O	0.259103	-0.037958	0.522909
	O3059	O	0.365672	-0.033392	0.521807
	O3060	O	0.321627	-0.036738	0.539834
	O3061	O	0.365672	-0.283393	0.602775
	O3062	O	0.249976	-0.120761	0.607949
	O3063	O	0.374997	-0.368820	0.516821
	C3064	C	0.348030	-0.278617	0.595278
	C3065	C	0.352665	-0.368375	0.595877
	C3066	C	0.348248	-0.458814	0.594265
	C3067	C	0.339455	-0.459370	0.592158
	C3068	C	0.334829	-0.369598	0.591416
	C3069	C	0.339235	-0.279105	0.593131
	C3070	C	0.325433	-0.370024	0.586823
	C3071	C	0.362067	-0.367764	0.600518
	C3072	C	0.299568	-0.368301	0.586941
	C3073	C	0.290148	-0.368663	0.591427
	C3074	C	0.285504	-0.278976	0.592226
	C3075	C	0.276710	-0.280092	0.594359
	C3076	C	0.272319	-0.370610	0.595937
	C3077	C	0.276951	-0.460306	0.595216
	C3078	C	0.285751	-0.459243	0.593039
	C3079	C	0.262915	-0.371229	0.600597
	C3080	C	0.299574	-0.118350	0.538101
	C3081	C	0.290172	-0.119284	0.533419
	C3082	C	0.285534	-0.029760	0.532931
	C3083	C	0.276735	-0.030384	0.530802
	C3084	C	0.272336	-0.120915	0.529151
	C3085	C	0.276983	-0.210641	0.529671
	C3086	C	0.285786	-0.210055	0.531804
	C3087	C	0.262931	-0.121736	0.524395
	C3088	C	0.325430	-0.120651	0.538090
	C3089	C	0.334847	-0.119910	0.533478
	C3090	C	0.339477	-0.209730	0.532726
	C3091	C	0.348273	-0.208959	0.530571
	C3092	C	0.352676	-0.118485	0.528846
	C3093	C	0.348042	-0.028685	0.529615
	C3094	C	0.339257	-0.029428	0.531729
	C3095	C	0.362089	-0.117804	0.524219
	H3096	H	0.351773	-0.278905	0.530210
	H3097	H	0.336143	-0.280158	0.533860
	H3098	H	0.351370	-0.208403	0.596423
	H3099	H	0.335769	-0.209163	0.592711
	H3100	H	0.312497	-0.368829	0.527063
	H3101	H	0.312395	-0.118795	0.597852
	H3102	H	0.249985	-0.120824	0.589489
	H3103	H	0.374895	-0.368786	0.535163
	H3104	H	0.289302	-0.280027	0.532192
	H3105	H	0.273686	-0.281289	0.528321
	H3106	H	0.273209	-0.210203	0.594656
	H3107	H	0.288774	-0.208281	0.590935
	H3108	H	0.273257	0.039565	0.530356
	H3109	H	0.288834	0.040881	0.534112
	H3110	H	0.289251	-0.528886	0.592371
	H3111	H	0.273652	-0.530917	0.596190
	H3112	H	0.336131	-0.529746	0.590953
	H3113	H	0.351710	-0.528969	0.594609
	H3114	H	0.335770	0.040629	0.532124
	H3115	H	0.351359	0.041706	0.528498
	Al3116	Al	0.312495	0.005554	0.562475
	Al3117	Al	0.312523	0.255849	0.562458
	Al3118	Al	0.250030	0.254199	0.500010
	Al3119	Al	0.250013	0.003988	0.500109
	O3120	O	0.321864	0.044997	0.584214
	O3121	O	0.312509	0.130639	0.545423
	O3122	O	0.312491	0.380574	0.579556
	O3123	O	0.365850	0.047797	0.602266
	O3124	O	0.303394	0.047382	0.585218
	O3125	O	0.259336	0.043933	0.603025
	O3126	O	0.303214	0.215700	0.584580
	O3127	O	0.303398	0.297646	0.539740
	O3128	O	0.259350	0.293712	0.521952
	O3129	O	0.321627	0.213321	0.585176
	O3130	O	0.321821	0.295317	0.540508
	O3131	O	0.365860	0.298348	0.522399
	O3132	O	0.259144	0.212233	0.602236
	O3133	O	0.303176	0.465911	0.540402
	O3134	O	0.259138	0.461980	0.522688
	O3135	O	0.365641	0.466681	0.521751
	O3136	O	0.321636	0.463731	0.539963
	O3137	O	0.365679	0.216192	0.602957
	O3138	O	0.250009	0.379395	0.608132
	O3139	O	0.374965	0.131041	0.516799
	C3140	C	0.348041	0.221010	0.595258
	C3141	C	0.352680	0.131257	0.595885
	C3142	C	0.348278	0.040753	0.594215
	C3143	C	0.339474	0.039931	0.592088
	C3144	C	0.334847	0.129859	0.591443
	C3145	C	0.339244	0.220314	0.593146
	C3146	C	0.325437	0.129494	0.586722
	C3147	C	0.362082	0.131942	0.600565
	C3148	C	0.299607	0.131525	0.586885
	C3149	C	0.290190	0.130729	0.591524
	C3150	C	0.285548	0.220367	0.592163
	C3151	C	0.276734	0.219659	0.594244
	C3152	C	0.272345	0.129063	0.595936
	C3153	C	0.276992	0.039440	0.595175
	C3154	C	0.285794	0.040191	0.593101
	C3155	C	0.262936	0.128228	0.600549
	C3156	C	0.299584	0.381376	0.538041
	C3157	C	0.290184	0.380562	0.533383
	C3158	C	0.285542	0.470246	0.532807
	C3159	C	0.276738	0.469464	0.530714
	C3160	C	0.272350	0.378705	0.528954
	C3161	C	0.276988	0.289058	0.529853
	C3162	C	0.285789	0.289933	0.531927
	C3163	C	0.262939	0.378117	0.524400
	C3164	C	0.325421	0.379710	0.538224
	C3165	C	0.334824	0.380158	0.533525
	C3166	C	0.339461	0.290387	0.532897
	C3167	C	0.348259	0.291180	0.530688
	C3168	C	0.352660	0.381548	0.528893
	C3169	C	0.348027	0.471290	0.529536
	C3170	C	0.339217	0.470574	0.531748
	C3171	C	0.362050	0.382322	0.524104
	H3172	H	0.351739	0.221393	0.530194
	H3173	H	0.336179	0.219682	0.534145
	H3174	H	0.351311	0.291848	0.596446
	H3175	H	0.335742	0.290272	0.592790
	H3176	H	0.312579	0.131069	0.527067
	H3177	H	0.312569	0.380761	0.597905
	H3178	H	0.249976	0.379525	0.589778
	H3179	H	0.375006	0.130720	0.535144
	H3180	H	0.289274	0.219997	0.532292
	H3181	H	0.273683	0.218626	0.528717
	H3182	H	0.273232	0.289765	0.594750
	H3183	H	0.288858	0.290934	0.591110
	H3184	H	0.273244	0.539364	0.530284
	H3185	H	0.288853	0.540645	0.533851
	H3186	H	0.289277	-0.029896	0.592868
	H3187	H	0.273702	-0.031250	0.596423
	H3188	H	0.336180	-0.030462	0.590901
	H3189	H	0.351775	-0.029132	0.594592
	H3190	H	0.335729	0.540596	0.532118
	H3191	H	0.351346	0.541780	0.528208
	Al3192	Al	0.312490	-0.493872	0.687393
	Al3193	Al	0.312504	-0.243802	0.687527
	Al3194	Al	0.250023	-0.245789	0.624994
	Al3195	Al	0.250019	-0.495794	0.625057
	O3196	O	0.321815	-0.454507	0.709400
	O3197	O	0.312499	-0.368892	0.670419
	O3198	O	0.312485	-0.118956	0.704525
	O3199	O	0.365893	-0.452449	0.727313
	O3200	O	0.303336	-0.452066	0.709879
	O3201	O	0.259337	-0.456016	0.728086
	O3202	O	0.303158	-0.283743	0.709377
	O3203	O	0.303366	-0.201826	0.664791
	O3204	O	0.259352	-0.206103	0.647004
	O3205	O	0.321635	-0.286337	0.710140
	O3206	O	0.321832	-0.204746	0.665480
	O3207	O	0.365832	-0.202228	0.647603
	O3208	O	0.259140	-0.287638	0.727212
	O3209	O	0.303159	-0.033321	0.665397
	O3210	O	0.259172	-0.037678	0.647494
	O3211	O	0.365692	-0.034174	0.646961
	O3212	O	0.321631	-0.036291	0.664673
	O3213	O	0.365689	-0.284106	0.727836
	O3214	O	0.249996	-0.120452	0.732814
	O3215	O	0.374965	-0.369220	0.641864
	C3216	C	0.348015	-0.279238	0.720299
	C3217	C	0.352658	-0.368909	0.720986
	C3218	C	0.348237	-0.459276	0.719393
	C3219	C	0.339446	-0.459738	0.717253
	C3220	C	0.334818	-0.369828	0.716454
	C3221	C	0.339234	-0.279593	0.718127
	C3222	C	0.325425	-0.370209	0.711806
	C3223	C	0.362083	-0.368490	0.725540
	C3224	C	0.299555	-0.368051	0.711730
	C3225	C	0.290172	-0.369131	0.716393
	C3226	C	0.285528	-0.279530	0.717117
	C3227	C	0.276732	-0.280656	0.719337
	C3228	C	0.272350	-0.371252	0.721042
	C3229	C	0.276997	-0.460836	0.720207
	C3230	C	0.285784	-0.459813	0.717983
	C3231	C	0.262943	-0.371760	0.725703
	C3232	C	0.299568	-0.117897	0.663096
	C3233	C	0.290171	-0.118702	0.658368
	C3234	C	0.285527	-0.029048	0.657770
	C3235	C	0.276727	-0.030018	0.655590
	C3236	C	0.272362	-0.120714	0.653900
	C3237	C	0.276997	-0.210316	0.654816
	C3238	C	0.285796	-0.209345	0.656939
	C3239	C	0.262955	-0.121708	0.649303
	C3240	C	0.325421	-0.120450	0.662999
	C3241	C	0.334828	-0.119516	0.658304
	C3242	C	0.339447	-0.209373	0.657776
	C3243	C	0.348248	-0.209030	0.655717
	C3244	C	0.352653	-0.118575	0.653929
	C3245	C	0.348033	-0.028777	0.654571
	C3246	C	0.339234	-0.029135	0.656594
	C3247	C	0.362051	-0.118179	0.649287
	H3248	H	0.351720	-0.278958	0.655374
	H3249	H	0.336123	-0.279667	0.658916
	H3250	H	0.351317	-0.208478	0.721356
	H3251	H	0.335770	-0.209818	0.717644
	H3252	H	0.312523	-0.368703	0.652165
	H3253	H	0.312437	-0.118953	0.722818
	H3254	H	0.250042	-0.120632	0.714516
	H3255	H	0.375128	-0.369438	0.660261
	H3256	H	0.289289	-0.279202	0.657375
	H3257	H	0.273698	-0.281017	0.653707
	H3258	H	0.273224	-0.210997	0.719589
	H3259	H	0.288823	-0.208646	0.715895
	H3260	H	0.273231	0.039491	0.655062
	H3261	H	0.288821	0.041674	0.658774
	H3262	H	0.289276	-0.529953	0.717327
	H3263	H	0.273696	-0.531382	0.721271
	H3264	H	0.336134	-0.530065	0.716071
	H3265	H	0.351760	-0.529210	0.719776
	H3266	H	0.335763	0.040812	0.656872
	H3267	H	0.351359	0.041719	0.653294
	Al3268	Al	0.312494	0.006173	0.687362
	Al3269	Al	0.312519	0.256162	0.687432
	Al3270	Al	0.250033	0.254455	0.625058
	Al3271	Al	0.250015	0.004383	0.624904
	O3272	O	0.321825	0.045733	0.709237
	O3273	O	0.312497	0.131166	0.670404
	O3274	O	0.312492	0.381010	0.704414
	O3275	O	0.365836	0.048056	0.727496
	O3276	O	0.303365	0.048304	0.710126
	O3277	O	0.259322	0.044489	0.727843
	O3278	O	0.303161	0.216529	0.709426
	O3279	O	0.303399	0.297872	0.664725
	O3280	O	0.259345	0.293825	0.647041
	O3281	O	0.321644	0.213846	0.710006
	O3282	O	0.321840	0.296109	0.665550
	O3283	O	0.365876	0.297943	0.647661
	O3284	O	0.259157	0.213058	0.727322
	O3285	O	0.303161	0.466281	0.665395
	O3286	O	0.259142	0.462118	0.647685
	O3287	O	0.365695	0.466183	0.646824
	O3288	O	0.321658	0.464189	0.664862
	O3289	O	0.365650	0.216196	0.728224
	O3290	O	0.250024	0.379763	0.732928
	O3291	O	0.374972	0.130542	0.641946
	C3292	C	0.348037	0.221272	0.720339
	C3293	C	0.352649	0.131564	0.721004
	C3294	C	0.348263	0.041070	0.719307
	C3295	C	0.339471	0.040434	0.717072
	C3296	C	0.334845	0.130119	0.716334
	C3297	C	0.339236	0.220511	0.718133
	C3298	C	0.325427	0.129745	0.711612
	C3299	C	0.362055	0.132035	0.725741
	C3300	C	0.299563	0.132163	0.711796
	C3301	C	0.290168	0.131462	0.716431
	C3302	C	0.285533	0.221121	0.717202
	C3303	C	0.276735	0.219908	0.719345
	C3304	C	0.272340	0.129384	0.720909
	C3305	C	0.276978	0.039674	0.720140
	C3306	C	0.285779	0.040813	0.717954
	C3307	C	0.262949	0.128889	0.725625
	C3308	C	0.299600	0.381750	0.662981
	C3309	C	0.290189	0.380820	0.658320
	C3310	C	0.285547	0.470537	0.657650
	C3311	C	0.276757	0.469646	0.655522
	C3312	C	0.272367	0.379121	0.653866
	C3313	C	0.277003	0.289422	0.654538
	C3314	C	0.285792	0.290268	0.656686
	C3315	C	0.262952	0.378280	0.649413
	C3316	C	0.325452	0.380411	0.663206
	C3317	C	0.334842	0.380749	0.658356
	C3318	C	0.339463	0.290976	0.657741
	C3319	C	0.348262	0.291457	0.655573
	C3320	C	0.352679	0.381750	0.653879
	C3321	C	0.348060	0.471477	0.654511
	C3322	C	0.339259	0.471128	0.656667
	C3323	C	0.362087	0.381954	0.649190
	H3324	H	0.351741	0.221407	0.655141
	H3325	H	0.336144	0.220457	0.659009
	H3326	H	0.351348	0.291696	0.721618
	H3327	H	0.335771	0.290529	0.717850
	H3328	H	0.312523	0.130829	0.652153
	H3329	H	0.312360	0.381092	0.722692
	H3330	H	0.250253	0.379639	0.714610
	H3331	H	0.375087	0.130642	0.660306
	H3332	H	0.289298	0.220371	0.657166
	H3333	H	0.273700	0.218767	0.653425
	H3334	H	0.273248	0.289812	0.719716
	H3335	H	0.288825	0.291696	0.715979
	H3336	H	0.273254	0.539647	0.655229
	H3337	H	0.288844	0.541070	0.658916
	H3338	H	0.289283	-0.029454	0.717295
	H3339	H	0.273689	-0.030789	0.721156
	H3340	H	0.336153	-0.029711	0.715962
	H3341	H	0.351701	-0.029138	0.719733
	H3342	H	0.335816	0.541164	0.657207
	H3343	H	0.351385	0.542026	0.653262
	Al3344	Al	0.312504	-0.493573	0.812508
	Al3345	Al	0.312519	-0.243620	0.812639
	Al3346	Al	0.250012	-0.245402	0.749909
	Al3347	Al	0.249970	-0.495648	0.749952
	O3348	O	0.321802	-0.453874	0.834585
	O3349	O	0.312506	-0.368485	0.795539
	O3350	O	0.312477	-0.118359	0.829627
	O3351	O	0.365778	-0.452603	0.852686
	O3352	O	0.303310	-0.451636	0.835028
	O3353	O	0.259281	-0.454673	0.852945
	O3354	O	0.303168	-0.283355	0.834677
	O3355	O	0.303327	-0.201599	0.789979
	O3356	O	0.259357	-0.205631	0.771841
	O3357	O	0.321646	-0.285580	0.835231
	O3358	O	0.321790	-0.203856	0.790488
	O3359	O	0.365829	-0.202292	0.772458
	O3360	O	0.259126	-0.286378	0.852463
	O3361	O	0.303182	-0.033245	0.790487
	O3362	O	0.259146	-0.037137	0.772490
	O3363	O	0.365684	-0.034010	0.771982
	O3364	O	0.321658	-0.035541	0.790129
	O3365	O	0.365650	-0.284248	0.853119
	O3366	O	0.249959	-0.119942	0.858005
	O3367	O	0.375065	-0.369472	0.767002
	C3368	C	0.348041	-0.278604	0.845427
	C3369	C	0.352637	-0.368614	0.846131
	C3370	C	0.348201	-0.458885	0.844556
	C3371	C	0.339412	-0.459057	0.842388
	C3372	C	0.334818	-0.369098	0.841609
	C3373	C	0.339252	-0.278847	0.843307
	C3374	C	0.325408	-0.369546	0.836852
	C3375	C	0.362030	-0.368321	0.850880
	C3376	C	0.299552	-0.367630	0.836851
	C3377	C	0.290130	-0.368049	0.841463
	C3378	C	0.285502	-0.278245	0.842184
	C3379	C	0.276703	-0.279041	0.844342
	C3380	C	0.272317	-0.369587	0.846023
	C3381	C	0.276932	-0.459449	0.845272
	C3382	C	0.285739	-0.458627	0.843136
	C3383	C	0.262888	-0.370421	0.850643
	C3384	C	0.299557	-0.117691	0.788181
	C3385	C	0.290159	-0.118407	0.783479
	C3386	C	0.285508	-0.028887	0.782782
	C3387	C	0.276721	-0.029842	0.780592
	C3388	C	0.272340	-0.120561	0.778996
	C3389	C	0.277004	-0.210151	0.779672
	C3390	C	0.285799	-0.209290	0.781859
	C3391	C	0.262947	-0.121246	0.774188
	C3392	C	0.325445	-0.119842	0.788265
	C3393	C	0.334834	-0.119420	0.783578
	C3394	C	0.339459	-0.209098	0.782832
	C3395	C	0.348256	-0.208621	0.780645
	C3396	C	0.352675	-0.118544	0.778979
	C3397	C	0.348062	-0.028576	0.779640
	C3398	C	0.339268	-0.029143	0.781836
	C3399	C	0.362057	-0.118289	0.774303
	H3400	H	0.351729	-0.278740	0.780088
	H3401	H	0.336145	-0.279486	0.783933
	H3402	H	0.351392	-0.208280	0.846555
	H3403	H	0.335799	-0.208735	0.842865
	H3404	H	0.312517	-0.368474	0.777116
	H3405	H	0.312420	-0.118087	0.848002
	H3406	H	0.249843	-0.120455	0.839649
	H3407	H	0.375137	-0.369845	0.785359
	H3408	H	0.289292	-0.279037	0.782339
	H3409	H	0.273711	-0.280739	0.778411
	H3410	H	0.273224	-0.209016	0.844776
	H3411	H	0.288805	-0.207582	0.841062
	H3412	H	0.273223	0.040165	0.780095
	H3413	H	0.288812	0.041637	0.783900
	H3414	H	0.289247	-0.528580	0.842797
	H3415	H	0.273638	-0.530002	0.846449
	H3416	H	0.336069	-0.529314	0.841283
	H3417	H	0.351675	-0.529057	0.845030
	H3418	H	0.335768	0.040679	0.782185
	H3419	H	0.351389	0.041809	0.778375
	Al3420	Al	0.312511	0.006547	0.812627
	Al3421	Al	0.312492	0.256440	0.812528
	Al3422	Al	0.249995	0.254552	0.749930
	Al3423	Al	0.250025	0.004507	0.749830
	O3424	O	0.321791	0.046548	0.834865
	O3425	O	0.312486	0.131481	0.795562
	O3426	O	0.312506	0.381483	0.829602
	O3427	O	0.365850	0.047864	0.852375
	O3428	O	0.303330	0.048368	0.835108
	O3429	O	0.259310	0.045573	0.853097
	O3430	O	0.303154	0.216789	0.834454
	O3431	O	0.303333	0.297912	0.789912
	O3432	O	0.259345	0.294152	0.771962
	O3433	O	0.321661	0.214915	0.835185
	O3434	O	0.321803	0.296420	0.790529
	O3435	O	0.365842	0.297777	0.772641
	O3436	O	0.259110	0.213705	0.852314
	O3437	O	0.303192	0.466201	0.790409
	O3438	O	0.259111	0.462428	0.772612
	O3439	O	0.365653	0.466090	0.771907
	O3440	O	0.321682	0.464654	0.789934
	O3441	O	0.365708	0.216146	0.852990
	O3442	O	0.249956	0.379905	0.857990
	O3443	O	0.375031	0.130661	0.767148
	C3444	C	0.348067	0.221451	0.845220
	C3445	C	0.352667	0.131613	0.845986
	C3446	C	0.348233	0.041419	0.844502
	C3447	C	0.339439	0.040872	0.842415
	C3448	C	0.334840	0.130736	0.841594
	C3449	C	0.339267	0.221044	0.843120
	C3450	C	0.325437	0.130763	0.837009
	C3451	C	0.362079	0.131965	0.850707
	C3452	C	0.299557	0.132452	0.836867
	C3453	C	0.290153	0.132080	0.841556
	C3454	C	0.285517	0.221772	0.842280
	C3455	C	0.276719	0.221012	0.844415
	C3456	C	0.272323	0.130473	0.846109
	C3457	C	0.276956	0.040818	0.845246
	C3458	C	0.285748	0.041520	0.843132
	C3459	C	0.262906	0.129790	0.850690
	C3460	C	0.299568	0.382102	0.788233
	C3461	C	0.290149	0.381383	0.783502
	C3462	C	0.285524	0.471117	0.782823
	C3463	C	0.276720	0.470146	0.780627
	C3464	C	0.272338	0.379645	0.778905
	C3465	C	0.276962	0.289955	0.779750
	C3466	C	0.285748	0.290940	0.781978
	C3467	C	0.262906	0.378793	0.774315
	C3468	C	0.325437	0.380592	0.788157
	C3469	C	0.334852	0.380555	0.783632
	C3470	C	0.339455	0.290713	0.782856
	C3471	C	0.348252	0.291074	0.780713
	C3472	C	0.352661	0.381411	0.779062
	C3473	C	0.348068	0.471309	0.779662
	C3474	C	0.339276	0.470813	0.781853
	C3475	C	0.362061	0.381795	0.774332
	H3476	H	0.351726	0.221017	0.780365
	H3477	H	0.336122	0.220437	0.783986
	H3478	H	0.351412	0.291547	0.846194
	H3479	H	0.335806	0.291278	0.842521
	H3480	H	0.312396	0.131491	0.777227
	H3481	H	0.312535	0.381058	0.847883
	H3482	H	0.249806	0.379696	0.839597
	H3483	H	0.374999	0.130262	0.785511
	H3484	H	0.289217	0.221231	0.782351
	H3485	H	0.273696	0.219257	0.778420
	H3486	H	0.273212	0.290855	0.844870
	H3487	H	0.288814	0.292280	0.841185
	H3488	H	0.273215	0.539979	0.779995
	H3489	H	0.288814	0.541721	0.783847
	H3490	H	0.289239	-0.028363	0.842681
	H3491	H	0.273627	-0.029546	0.846361
	H3492	H	0.336108	-0.029685	0.841268
	H3493	H	0.351689	-0.028777	0.844957
	H3494	H	0.335846	0.541026	0.782197
	H3495	H	0.351392	0.541776	0.778453
	Al3496	Al	0.312499	-0.493022	0.937465
	Al3497	Al	0.312464	-0.243443	0.937371
	Al3498	Al	0.249999	-0.244503	0.875130
	Al3499	Al	0.249977	-0.494903	0.874944
	O3500	O	0.321782	-0.453147	0.959603
	O3501	O	0.312466	-0.368102	0.920289
	O3502	O	0.312487	-0.118003	0.954398
	O3503	O	0.365832	-0.451567	0.977361
	O3504	O	0.303398	-0.451176	0.960225
	O3505	O	0.259331	-0.455255	0.977970
	O3506	O	0.303124	-0.283070	0.959366
	O3507	O	0.303364	-0.201041	0.914781
	O3508	O	0.259345	-0.204611	0.897045
	O3509	O	0.321665	-0.285076	0.959791
	O3510	O	0.321780	-0.203319	0.915304
	O3511	O	0.365800	-0.202184	0.897580
	O3512	O	0.259125	-0.286769	0.977311
	O3513	O	0.303191	-0.032784	0.915356
	O3514	O	0.259178	-0.036446	0.897403
	O3515	O	0.365670	-0.033897	0.897143
	O3516	O	0.321662	-0.034992	0.914914
	O3517	O	0.365676	-0.283448	0.978043
	O3518	O	0.249915	-0.119923	0.982921
	O3519	O	0.375007	-0.369352	0.892192
	C3520	C	0.348045	-0.278251	0.970295
	C3521	C	0.352648	-0.367999	0.971047
	C3522	C	0.348231	-0.458358	0.969524
	C3523	C	0.339437	-0.458770	0.967335
	C3524	C	0.334834	-0.368980	0.966428
	C3525	C	0.339254	-0.278771	0.968032
	C3526	C	0.325408	-0.368824	0.961709
	C3527	C	0.362058	-0.367593	0.975663
	C3528	C	0.299556	-0.367300	0.961801
	C3529	C	0.290147	-0.368321	0.966511
	C3530	C	0.285512	-0.278700	0.967256
	C3531	C	0.276722	-0.279426	0.969371
	C3532	C	0.272339	-0.370078	0.970973
	C3533	C	0.276969	-0.459736	0.970363
	C3534	C	0.285768	-0.458856	0.968269
	C3535	C	0.262932	-0.370809	0.975615
	C3536	C	0.299571	-0.117108	0.913039
	C3537	C	0.290158	-0.117684	0.908540
	C3538	C	0.285531	-0.027980	0.907757
	C3539	C	0.276746	-0.028931	0.905649
	C3540	C	0.272361	-0.119418	0.903942
	C3541	C	0.276983	-0.209141	0.904773
	C3542	C	0.285779	-0.208165	0.906914
	C3543	C	0.262970	-0.120371	0.899262
	C3544	C	0.325419	-0.119316	0.913103
	C3545	C	0.334833	-0.119028	0.908524
	C3546	C	0.339422	-0.208972	0.907864
	C3547	C	0.348218	-0.208554	0.905649
	C3548	C	0.352643	-0.118198	0.904010
	C3549	C	0.348050	-0.028295	0.904786
	C3550	C	0.339255	-0.028716	0.906963
	C3551	C	0.362055	-0.118136	0.899345
	H3552	H	0.351686	-0.278641	0.905206
	H3553	H	0.336078	-0.279304	0.908983
	H3554	H	0.351358	-0.207825	0.971414
	H3555	H	0.335791	-0.208715	0.967452
	H3556	H	0.312429	-0.368373	0.901940
	H3557	H	0.312448	-0.118095	0.972764
	H3558	H	0.249783	-0.119665	0.964561
	H3559	H	0.374990	-0.368858	0.910541
	H3560	H	0.289308	-0.277876	0.907368
	H3561	H	0.273715	-0.279908	0.903591
	H3562	H	0.273263	-0.209576	0.969824
	H3563	H	0.288835	-0.208254	0.966206
	H3564	H	0.273207	0.040873	0.905215
	H3565	H	0.288823	0.042706	0.908822
	H3566	H	0.289256	-0.528778	0.967918
	H3567	H	0.273651	-0.530187	0.971604
	H3568	H	0.336095	-0.529195	0.966244
	H3569	H	0.351692	-0.528483	0.970022
	H3570	H	0.335786	0.041358	0.907448
	H3571	H	0.351367	0.042117	0.903594
	Al3572	Al	0.312500	0.006875	0.937362
	Al3573	Al	0.312517	0.257038	0.937437
	Al3574	Al	0.249982	0.255237	0.875038
	Al3575	Al	0.249967	0.005272	0.874926
	O3576	O	0.321815	0.046660	0.959552
	O3577	O	0.312512	0.132203	0.920326
	O3578	O	0.312499	0.382036	0.954419
	O3579	O	0.365771	0.048119	0.977664
	O3580	O	0.303365	0.048690	0.960004
	O3581	O	0.259354	0.044451	0.977973
	O3582	O	0.303196	0.217075	0.959501
	O3583	O	0.303340	0.299162	0.914852
	O3584	O	0.259304	0.295155	0.897081
	O3585	O	0.321671	0.215140	0.959991
	O3586	O	0.321786	0.296407	0.915340
	O3587	O	0.365820	0.297253	0.897695
	O3588	O	0.259114	0.212854	0.977319
	O3589	O	0.303146	0.467300	0.915499
	O3590	O	0.259126	0.463398	0.897747
	O3591	O	0.365670	0.465603	0.897096
	O3592	O	0.321649	0.464821	0.914864
	O3593	O	0.365680	0.216455	0.977999
	O3594	O	0.249989	0.380165	0.982899
	O3595	O	0.375012	0.130441	0.892066
	C3596	C	0.348043	0.221948	0.970189
	C3597	C	0.352647	0.132091	0.971047
	C3598	C	0.348229	0.041590	0.969379
	C3599	C	0.339433	0.041112	0.967297
	C3600	C	0.334827	0.131037	0.966557
	C3601	C	0.339247	0.221450	0.968036
	C3602	C	0.325434	0.130967	0.961870
	C3603	C	0.362046	0.132351	0.975649
	C3604	C	0.299584	0.132800	0.961713
	C3605	C	0.290164	0.132144	0.966523
	C3606	C	0.285520	0.221864	0.967303
	C3607	C	0.276714	0.220498	0.969422
	C3608	C	0.272332	0.129761	0.970951
	C3609	C	0.276985	0.040032	0.970321
	C3610	C	0.285785	0.041310	0.968235
	C3611	C	0.262923	0.128975	0.975699
	C3612	C	0.299563	0.382858	0.913126
	C3613	C	0.290148	0.382171	0.908487
	C3614	C	0.285507	0.471769	0.907778
	C3615	C	0.276708	0.470960	0.905668
	C3616	C	0.272317	0.380261	0.904084
	C3617	C	0.276965	0.290699	0.904696
	C3618	C	0.285764	0.291587	0.906816
	C3619	C	0.262918	0.379580	0.899386
	C3620	C	0.325410	0.380529	0.913052
	C3621	C	0.334803	0.380711	0.908459
	C3622	C	0.339385	0.290665	0.907714
	C3623	C	0.348192	0.290864	0.905578
	C3624	C	0.352638	0.381001	0.904001
	C3625	C	0.348056	0.471153	0.904736
	C3626	C	0.339251	0.470923	0.906861
	C3627	C	0.362044	0.381468	0.899354
	H3628	H	0.351647	0.220920	0.905026
	H3629	H	0.336056	0.220411	0.908829
	H3630	H	0.351369	0.292371	0.971259
	H3631	H	0.335805	0.291524	0.967544
	H3632	H	0.312532	0.132445	0.902021
	H3633	H	0.312431	0.382287	0.972808
	H3634	H	0.249819	0.380132	0.964528
	H3635	H	0.374992	0.130104	0.910404
	H3636	H	0.289220	0.221487	0.907371
	H3637	H	0.273646	0.220270	0.903692
	H3638	H	0.273190	0.290381	0.969827
	H3639	H	0.288804	0.292479	0.966154
	H3640	H	0.273228	0.541101	0.905419
	H3641	H	0.288832	0.542269	0.909163
	H3642	H	0.289276	-0.028322	0.967728
	H3643	H	0.273702	-0.030737	0.971383
	H3644	H	0.336088	-0.029285	0.966249
	H3645	H	0.351703	-0.028397	0.969839
	H3646	H	0.335792	0.541087	0.907247
	H3647	H	0.351377	0.541407	0.903568
	Al3648	Al	0.437460	-0.495377	0.062473
	Al3649	Al	0.437489	-0.245062	0.062391
	Al3650	Al	0.374955	-0.243492	0.000102
	Al3651	Al	0.374949	-0.493268	-0.000029
	O3652	O	0.446733	-0.455578	0.084517
	O3653	O	0.437465	-0.370476	0.045392
	O3654	O	0.437488	-0.120433	0.079544
	O3655	O	0.490749	-0.457175	0.102698
	O3656	O	0.428331	-0.453313	0.085070
	O3657	O	0.384308	-0.454153	0.102852
	O3658	O	0.428205	-0.284898	0.084444
	O3659	O	0.428308	-0.203492	0.039982
	O3660	O	0.384270	-0.203518	0.022227
	O3661	O	0.446656	-0.287224	0.084984
	O3662	O	0.446788	-0.205091	0.040364
	O3663	O	0.490757	-0.207104	0.022210
	O3664	O	0.384131	-0.285804	0.102317
	O3665	O	0.428250	-0.035398	0.040130
	O3666	O	0.384214	-0.035221	0.022498
	O3667	O	0.490756	-0.038839	0.022145
	O3668	O	0.446716	-0.036995	0.040265
	O3669	O	0.490671	-0.288852	0.102697
	O3670	O	0.374951	-0.119075	0.107942
	O3671	O	0.499961	-0.373151	0.017127
	C3672	C	0.473063	-0.282102	0.094912
	C3673	C	0.477600	-0.372558	0.096030
	C3674	C	0.473110	-0.462459	0.094636
	C3675	C	0.464325	-0.462044	0.092472
	C3676	C	0.459784	-0.371657	0.091406
	C3677	C	0.464265	-0.281687	0.092723
	C3678	C	0.450375	-0.371425	0.086797
	C3679	C	0.487025	-0.372976	0.100710
	C3680	C	0.424573	-0.368989	0.086814
	C3681	C	0.415183	-0.369284	0.091397
	C3682	C	0.410590	-0.279218	0.092186
	C3683	C	0.401791	-0.279312	0.094351
	C3684	C	0.397336	-0.369537	0.095957
	C3685	C	0.401935	-0.459586	0.095161
	C3686	C	0.410726	-0.459452	0.092988
	C3687	C	0.387925	-0.369664	0.100541
	C3688	C	0.424588	-0.119324	0.037981
	C3689	C	0.415181	-0.119268	0.033343
	C3690	C	0.410610	-0.029239	0.032517
	C3691	C	0.401815	-0.029328	0.030354
	C3692	C	0.397365	-0.119359	0.028878
	C3693	C	0.401954	-0.209329	0.029773
	C3694	C	0.410727	-0.209340	0.031871
	C3695	C	0.387946	-0.119408	0.024338
	C3696	C	0.450454	-0.121148	0.038303
	C3697	C	0.459855	-0.121330	0.033505
	C3698	C	0.464392	-0.211550	0.032363
	C3699	C	0.473189	-0.211913	0.030208
	C3700	C	0.477675	-0.122100	0.028956
	C3701	C	0.473145	-0.031813	0.030079
	C3702	C	0.464348	-0.031561	0.032280
	C3703	C	0.487062	-0.122543	0.024184
	H3704	H	0.476593	-0.282325	0.029405
	H3705	H	0.461025	-0.281884	0.033265
	H3706	H	0.476446	-0.212115	0.095866
	H3707	H	0.460836	-0.211342	0.092035
	H3708	H	0.437362	-0.370080	0.027112
	H3709	H	0.437501	-0.120102	0.098007
	H3710	H	0.375014	-0.118793	0.089568
	H3711	H	0.499918	-0.372883	0.035455
	H3712	H	0.414180	-0.279285	0.032442
	H3713	H	0.398622	-0.279715	0.028684
	H3714	H	0.398325	-0.209336	0.094884
	H3715	H	0.413920	-0.208754	0.091081
	H3716	H	0.398363	0.040695	0.029776
	H3717	H	0.413967	0.041130	0.033603
	H3718	H	0.414200	-0.529687	0.092509
	H3719	H	0.398624	-0.529782	0.096251
	H3720	H	0.460971	-0.532141	0.091591
	H3721	H	0.476542	-0.533166	0.095319
	H3722	H	0.460941	0.038708	0.033051
	H3723	H	0.476517	0.038538	0.029195
	Al3724	Al	0.437490	0.004626	0.062415
	Al3725	Al	0.437455	0.254652	0.062350
	Al3726	Al	0.374986	0.256585	0.000007
	Al3727	Al	0.374974	0.006570	0.000127
	O3728	O	0.446731	0.044816	0.084800
	O3729	O	0.437458	0.129388	0.045313
	O3730	O	0.437460	0.379551	0.079463
	O3731	O	0.490774	0.043244	0.102695
	O3732	O	0.428283	0.046301	0.084936
	O3733	O	0.384282	0.045427	0.102930
	O3734	O	0.428165	0.214529	0.084380
	O3735	O	0.428276	0.296746	0.039856
	O3736	O	0.384235	0.296548	0.022260
	O3737	O	0.446695	0.213096	0.084818
	O3738	O	0.446739	0.294456	0.040149
	O3739	O	0.490742	0.292891	0.022356
	O3740	O	0.384174	0.214055	0.102409
	O3741	O	0.428144	0.465054	0.040337
	O3742	O	0.384170	0.464986	0.022390
	O3743	O	0.490733	0.461112	0.022372
	O3744	O	0.446715	0.462734	0.040181
	O3745	O	0.490758	0.211285	0.102597
	O3746	O	0.374935	0.381081	0.107900
	O3747	O	0.500037	0.126612	0.017097
	C3748	C	0.473091	0.218073	0.094939
	C3749	C	0.477647	0.127905	0.096009
	C3750	C	0.473172	0.037961	0.094752
	C3751	C	0.464368	0.038119	0.092646
	C3752	C	0.459815	0.128363	0.091592
	C3753	C	0.464292	0.218317	0.092855
	C3754	C	0.450402	0.128681	0.086823
	C3755	C	0.487061	0.127406	0.100603
	C3756	C	0.424533	0.130423	0.086765
	C3757	C	0.415131	0.130421	0.091436
	C3758	C	0.410556	0.220355	0.092415
	C3759	C	0.401763	0.220066	0.094581
	C3760	C	0.397327	0.129774	0.096027
	C3761	C	0.401905	0.039835	0.095117
	C3762	C	0.410701	0.040145	0.092941
	C3763	C	0.387916	0.129694	0.100674
	C3764	C	0.424505	0.380797	0.038055
	C3765	C	0.415108	0.380585	0.033552
	C3766	C	0.410528	0.470630	0.032737
	C3767	C	0.401747	0.470544	0.030578
	C3768	C	0.397299	0.380428	0.028990
	C3769	C	0.401867	0.290357	0.029852
	C3770	C	0.410662	0.290361	0.032061
	C3771	C	0.387901	0.380665	0.024323
	C3772	C	0.450417	0.378409	0.038091
	C3773	C	0.459829	0.378316	0.033425
	C3774	C	0.464358	0.288148	0.032387
	C3775	C	0.473153	0.287814	0.030308
	C3776	C	0.477626	0.377641	0.028921
	C3777	C	0.473100	0.468019	0.030022
	C3778	C	0.464295	0.468367	0.032132
	C3779	C	0.487035	0.377333	0.024367
	H3780	H	0.476552	0.217404	0.029720
	H3781	H	0.460976	0.217883	0.033315
	H3782	H	0.476444	0.288422	0.095809
	H3783	H	0.460879	0.288521	0.092200
	H3784	H	0.437507	0.129432	0.027011
	H3785	H	0.437592	0.379807	0.097765
	H3786	H	0.374976	0.381367	0.089600
	H3787	H	0.500025	0.126408	0.035416
	H3788	H	0.414099	0.219951	0.032723
	H3789	H	0.398491	0.220138	0.028983
	H3790	H	0.398326	0.290475	0.095110
	H3791	H	0.413878	0.290599	0.091420
	H3792	H	0.398316	0.541017	0.030219
	H3793	H	0.413873	0.540822	0.033844
	H3794	H	0.414158	-0.029937	0.092362
	H3795	H	0.398556	-0.030475	0.096166
	H3796	H	0.461004	-0.032295	0.091848
	H3797	H	0.476612	-0.032242	0.095494
	H3798	H	0.460876	0.538810	0.032828
	H3799	H	0.476480	0.537930	0.029238
	Al3800	Al	0.437464	-0.495871	0.187615
	Al3801	Al	0.437467	-0.245954	0.187453
	Al3802	Al	0.374967	-0.243824	0.124990
	Al3803	Al	0.374971	-0.493825	0.124895
	O3804	O	0.446736	-0.455903	0.209924
	O3805	O	0.437492	-0.370967	0.170483
	O3806	O	0.437507	-0.120998	0.204575
	O3807	O	0.490791	-0.457089	0.227560
	O3808	O	0.428268	-0.454350	0.209924
	O3809	O	0.384281	-0.453972	0.227650
	O3810	O	0.428234	-0.286052	0.209791
	O3811	O	0.428327	-0.203992	0.164935
	O3812	O	0.384262	-0.203968	0.147073
	O3813	O	0.446747	-0.287436	0.209755
	O3814	O	0.446754	-0.205631	0.165232
	O3815	O	0.490758	-0.207034	0.147170
	O3816	O	0.384178	-0.285754	0.227421
	O3817	O	0.428182	-0.035781	0.165518
	O3818	O	0.384166	-0.035739	0.147567
	O3819	O	0.490741	-0.038934	0.147118
	O3820	O	0.446704	-0.037552	0.165152
	O3821	O	0.490748	-0.288972	0.227676
	O3822	O	0.374994	-0.118959	0.232895
	O3823	O	0.499984	-0.373377	0.142012
	C3824	C	0.473102	-0.282248	0.220094
	C3825	C	0.477652	-0.372468	0.221070
	C3826	C	0.473197	-0.462543	0.219606
	C3827	C	0.464394	-0.462497	0.217455
	C3828	C	0.459845	-0.372321	0.216467
	C3829	C	0.464302	-0.282183	0.217877
	C3830	C	0.450440	-0.371838	0.211847
	C3831	C	0.487065	-0.372825	0.225687
	C3832	C	0.424557	-0.369931	0.211989
	C3833	C	0.415152	-0.369733	0.216520
	C3834	C	0.410583	-0.279556	0.217315
	C3835	C	0.401789	-0.279644	0.219417
	C3836	C	0.397334	-0.369834	0.220957
	C3837	C	0.401901	-0.460057	0.220287
	C3838	C	0.410701	-0.459957	0.218171
	C3839	C	0.387919	-0.369908	0.225565
	C3840	C	0.424555	-0.119885	0.163291
	C3841	C	0.415148	-0.120025	0.158547
	C3842	C	0.410556	-0.029997	0.157819
	C3843	C	0.401759	-0.029773	0.155632
	C3844	C	0.397315	-0.119884	0.154082
	C3845	C	0.401907	-0.209848	0.154837
	C3846	C	0.410704	-0.210032	0.156991
	C3847	C	0.387912	-0.120029	0.149371
	C3848	C	0.450427	-0.121737	0.163135
	C3849	C	0.459847	-0.122159	0.158620
	C3850	C	0.464388	-0.212371	0.157608
	C3851	C	0.473173	-0.212272	0.155465
	C3852	C	0.477667	-0.122338	0.154041
	C3853	C	0.473119	-0.032324	0.155013
	C3854	C	0.464333	-0.032299	0.157141
	C3855	C	0.487069	-0.122861	0.149256
	H3856	H	0.476621	-0.282667	0.154964
	H3857	H	0.460992	-0.282451	0.158631
	H3858	H	0.476446	-0.211855	0.221086
	H3859	H	0.460866	-0.212037	0.217249
	H3860	H	0.437663	-0.371493	0.152201
	H3861	H	0.437611	-0.121518	0.222906
	H3862	H	0.374825	-0.119361	0.214528
	H3863	H	0.500067	-0.373180	0.160392
	H3864	H	0.414149	-0.280297	0.157400
	H3865	H	0.398574	-0.280195	0.153645
	H3866	H	0.398349	-0.209558	0.219757
	H3867	H	0.413913	-0.209409	0.216090
	H3868	H	0.398326	0.040379	0.155016
	H3869	H	0.413918	0.040329	0.158892
	H3870	H	0.414145	-0.530076	0.217596
	H3871	H	0.398535	-0.530079	0.221304
	H3872	H	0.461050	-0.532580	0.216460
	H3873	H	0.476647	-0.532672	0.220188
	H3874	H	0.460923	0.038241	0.157858
	H3875	H	0.476506	0.037844	0.154235
	Al3876	Al	0.437489	0.004044	0.187637
	Al3877	Al	0.437463	0.254137	0.187507
	Al3878	Al	0.374985	0.256013	0.124838
	Al3879	Al	0.374966	0.005936	0.124930
	O3880	O	0.446749	0.044304	0.209716
	O3881	O	0.437432	0.128997	0.170490
	O3882	O	0.437513	0.378987	0.204655
	O3883	O	0.490785	0.042823	0.227591
	O3884	O	0.428289	0.045848	0.210031
	O3885	O	0.384313	0.046220	0.227757
	O3886	O	0.428216	0.214113	0.209735
	O3887	O	0.428264	0.295305	0.165146
	O3888	O	0.384282	0.296113	0.146899
	O3889	O	0.446670	0.212464	0.209897
	O3890	O	0.446726	0.294305	0.165238
	O3891	O	0.490764	0.292748	0.147375
	O3892	O	0.384177	0.214591	0.227289
	O3893	O	0.428219	0.463589	0.165387
	O3894	O	0.384124	0.464401	0.147517
	O3895	O	0.490738	0.461133	0.147111
	O3896	O	0.446713	0.462455	0.165181
	O3897	O	0.490706	0.211101	0.227846
	O3898	O	0.374973	0.381171	0.232913
	O3899	O	0.500000	0.126440	0.142039
	C3900	C	0.473086	0.217642	0.220144
	C3901	C	0.477646	0.127360	0.221003
	C3902	C	0.473155	0.037506	0.219615
	C3903	C	0.464352	0.037811	0.217486
	C3904	C	0.459799	0.128118	0.216445
	C3905	C	0.464285	0.218009	0.217974
	C3906	C	0.450412	0.128225	0.211879
	C3907	C	0.487037	0.127152	0.225751
	C3908	C	0.424558	0.129972	0.211861
	C3909	C	0.415149	0.130269	0.216369
	C3910	C	0.410591	0.220378	0.217159
	C3911	C	0.401792	0.220538	0.219239
	C3912	C	0.397340	0.130526	0.220843
	C3913	C	0.401900	0.040348	0.220225
	C3914	C	0.410693	0.040207	0.218048
	C3915	C	0.387932	0.130605	0.225501
	C3916	C	0.424545	0.379785	0.163196
	C3917	C	0.415139	0.380162	0.158568
	C3918	C	0.410570	0.470350	0.157658
	C3919	C	0.401771	0.470266	0.155457
	C3920	C	0.397314	0.380224	0.153995
	C3921	C	0.401883	0.290050	0.154843
	C3922	C	0.410682	0.290002	0.157055
	C3923	C	0.387905	0.380313	0.149260
	C3924	C	0.450414	0.378307	0.163294
	C3925	C	0.459835	0.378029	0.158601
	C3926	C	0.464377	0.287832	0.157538
	C3927	C	0.473176	0.287727	0.155416
	C3928	C	0.477661	0.377670	0.154195
	C3929	C	0.473110	0.467780	0.155079
	C3930	C	0.464299	0.468012	0.157167
	C3931	C	0.487063	0.377254	0.149332
	H3932	H	0.476596	0.217692	0.154655
	H3933	H	0.461023	0.217534	0.158400
	H3934	H	0.476478	0.287945	0.221065
	H3935	H	0.460862	0.288454	0.217229
	H3936	H	0.437405	0.128891	0.152193
	H3937	H	0.437623	0.378181	0.223022
	H3938	H	0.374939	0.381362	0.214639
	H3939	H	0.500058	0.126227	0.160430
	H3940	H	0.414115	0.219759	0.157712
	H3941	H	0.398530	0.219627	0.153864
	H3942	H	0.398343	0.290680	0.219599
	H3943	H	0.413956	0.290393	0.215959
	H3944	H	0.398344	0.540731	0.155026
	H3945	H	0.413932	0.540399	0.158822
	H3946	H	0.414125	-0.029994	0.217587
	H3947	H	0.398552	-0.029838	0.221306
	H3948	H	0.460990	-0.032247	0.216364
	H3949	H	0.476576	-0.032916	0.220093
	H3950	H	0.460870	0.538402	0.157753
	H3951	H	0.476453	0.537956	0.154034
	Al3952	Al	0.437483	-0.496119	0.312338
	Al3953	Al	0.437486	-0.246048	0.312240
	Al3954	Al	0.374992	-0.243955	0.249984
	Al3955	Al	0.375009	-0.493790	0.249930
	O3956	O	0.446767	-0.456178	0.334653
	O3957	O	0.437501	-0.371059	0.295198
	O3958	O	0.437480	-0.120935	0.329326
	O3959	O	0.490801	-0.456416	0.352310
	O3960	O	0.428340	-0.453921	0.334882
	O3961	O	0.384285	-0.454099	0.352868
	O3962	O	0.428200	-0.285748	0.334343
	O3963	O	0.428305	-0.203663	0.289795
	O3964	O	0.384276	-0.203638	0.272079
	O3965	O	0.446639	-0.287997	0.334883
	O3966	O	0.446781	-0.206223	0.290211
	O3967	O	0.490773	-0.206992	0.272341
	O3968	O	0.384207	-0.285760	0.352501
	O3969	O	0.428201	-0.035321	0.290302
	O3970	O	0.384185	-0.035540	0.272379
	O3971	O	0.490750	-0.038730	0.272382
	O3972	O	0.446686	-0.037717	0.289757
	O3973	O	0.490700	-0.287912	0.352701
	O3974	O	0.375013	-0.119567	0.357939
	O3975	O	0.499998	-0.373765	0.267032
	C3976	C	0.473070	-0.282014	0.344929
	C3977	C	0.477642	-0.372061	0.345719
	C3978	C	0.473175	-0.462053	0.344329
	C3979	C	0.464377	-0.462080	0.342265
	C3980	C	0.459812	-0.371917	0.341305
	C3981	C	0.464265	-0.281896	0.342845
	C3982	C	0.450400	-0.372054	0.336813
	C3983	C	0.487052	-0.372046	0.350427
	C3984	C	0.424575	-0.369853	0.336631
	C3985	C	0.415171	-0.370033	0.341307
	C3986	C	0.410575	-0.279968	0.342069
	C3987	C	0.401782	-0.279961	0.344225
	C3988	C	0.397332	-0.370161	0.345837
	C3989	C	0.401908	-0.460158	0.345102
	C3990	C	0.410713	-0.460228	0.342936
	C3991	C	0.387927	-0.369978	0.350601
	C3992	C	0.424553	-0.119427	0.288072
	C3993	C	0.415153	-0.119446	0.283276
	C3994	C	0.410556	-0.029553	0.282690
	C3995	C	0.401758	-0.029507	0.280576
	C3996	C	0.397336	-0.119716	0.278782
	C3997	C	0.401911	-0.209731	0.279586
	C3998	C	0.410708	-0.209680	0.281683
	C3999	C	0.387935	-0.119708	0.274296
	C4000	C	0.450436	-0.122174	0.287970
	C4001	C	0.459832	-0.122293	0.283368
	C4002	C	0.464405	-0.212494	0.282509
	C4003	C	0.473198	-0.212582	0.280380
	C4004	C	0.477655	-0.122418	0.278883
	C4005	C	0.473086	-0.032271	0.279790
	C4006	C	0.464284	-0.032227	0.281902
	C4007	C	0.487062	-0.122739	0.274305
	H4008	H	0.476640	-0.282852	0.279810
	H4009	H	0.461051	-0.282801	0.283553
	H4010	H	0.476402	-0.211889	0.345851
	H4011	H	0.460816	-0.211747	0.342254
	H4012	H	0.437450	-0.371064	0.276877
	H4013	H	0.437454	-0.120437	0.347644
	H4014	H	0.375093	-0.118924	0.339568
	H4015	H	0.500041	-0.373730	0.285350
	H4016	H	0.414124	-0.279956	0.281814
	H4017	H	0.398561	-0.279901	0.278340
	H4018	H	0.398349	-0.209971	0.344710
	H4019	H	0.413930	-0.209609	0.340925
	H4020	H	0.398313	0.040745	0.280060
	H4021	H	0.413930	0.040614	0.283755
	H4022	H	0.414143	-0.530514	0.342460
	H4023	H	0.398556	-0.530600	0.346254
	H4024	H	0.461019	-0.532404	0.341316
	H4025	H	0.476617	-0.532295	0.344814
	H4026	H	0.460840	0.037951	0.282489
	H4027	H	0.476441	0.038168	0.278785
	Al4028	Al	0.437547	0.004191	0.312322
	Al4029	Al	0.437486	0.253986	0.312369
	Al4030	Al	0.374977	0.255838	0.249902
	Al4031	Al	0.375025	0.006061	0.249961
	O4032	O	0.446829	0.043683	0.334380
	O4033	O	0.437495	0.129183	0.295277
	O4034	O	0.437524	0.379100	0.329349
	O4035	O	0.490825	0.043597	0.352338
	O4036	O	0.428335	0.045834	0.334687
	O4037	O	0.384305	0.045667	0.352950
	O4038	O	0.428201	0.214008	0.334507
	O4039	O	0.428259	0.295736	0.290002
	O4040	O	0.384237	0.295919	0.272228
	O4041	O	0.446680	0.212107	0.334825
	O4042	O	0.446766	0.294043	0.290108
	O4043	O	0.490766	0.292918	0.272302
	O4044	O	0.384204	0.213872	0.352274
	O4045	O	0.428196	0.463794	0.290267
	O4046	O	0.384168	0.464319	0.272434
	O4047	O	0.490694	0.461178	0.272016
	O4048	O	0.446687	0.462314	0.289866
	O4049	O	0.490717	0.211840	0.352713
	O4050	O	0.374996	0.380810	0.357858
	O4051	O	0.499970	0.126376	0.267101
	C4052	C	0.473119	0.218181	0.344830
	C4053	C	0.477667	0.127971	0.345835
	C4054	C	0.473200	0.038052	0.344453
	C4055	C	0.464399	0.038170	0.342255
	C4056	C	0.459847	0.128153	0.341338
	C4057	C	0.464312	0.218252	0.342699
	C4058	C	0.450453	0.128039	0.336616
	C4059	C	0.487073	0.127645	0.350521
	C4060	C	0.424579	0.129764	0.336612
	C4061	C	0.415173	0.129694	0.341291
	C4062	C	0.410587	0.219763	0.342143
	C4063	C	0.401783	0.219646	0.344334
	C4064	C	0.397354	0.129513	0.345949
	C4065	C	0.401947	0.039368	0.345179
	C4066	C	0.410749	0.039513	0.342931
	C4067	C	0.387940	0.129769	0.350597
	C4068	C	0.424529	0.379981	0.288065
	C4069	C	0.415124	0.380125	0.283387
	C4070	C	0.410549	0.470094	0.282684
	C4071	C	0.401757	0.469938	0.280593
	C4072	C	0.397302	0.379943	0.278984
	C4073	C	0.401878	0.289831	0.279635
	C4074	C	0.410680	0.290063	0.281755
	C4075	C	0.387901	0.380087	0.274290
	C4076	C	0.450424	0.378071	0.287969
	C4077	C	0.459823	0.377635	0.283259
	C4078	C	0.464376	0.287404	0.282460
	C4079	C	0.473164	0.287270	0.280322
	C4080	C	0.477635	0.377288	0.278820
	C4081	C	0.473085	0.467445	0.279774
	C4082	C	0.464297	0.467613	0.281882
	C4083	C	0.487038	0.377212	0.274158
	H4084	H	0.476586	0.216886	0.279726
	H4085	H	0.461009	0.217343	0.283489
	H4086	H	0.476488	0.288327	0.345839
	H4087	H	0.460878	0.288494	0.341996
	H4088	H	0.437344	0.129124	0.276976
	H4089	H	0.437592	0.379533	0.347770
	H4090	H	0.375096	0.380637	0.339579
	H4091	H	0.499964	0.125670	0.285464
	H4092	H	0.414128	0.219907	0.282265
	H4093	H	0.398541	0.219656	0.278586
	H4094	H	0.398343	0.289989	0.344832
	H4095	H	0.413907	0.290112	0.341052
	H4096	H	0.398308	0.540204	0.280227
	H4097	H	0.413891	0.540417	0.283879
	H4098	H	0.414210	-0.030576	0.342493
	H4099	H	0.398612	-0.031008	0.346334
	H4100	H	0.461073	-0.032181	0.341283
	H4101	H	0.476610	-0.032398	0.345152
	H4102	H	0.460881	0.537777	0.282522
	H4103	H	0.476446	0.537533	0.278760
	Al4104	Al	0.437456	-0.495318	0.437357
	Al4105	Al	0.437512	-0.245488	0.437383
	Al4106	Al	0.375032	-0.244262	0.374982
	Al4107	Al	0.374991	-0.494232	0.374911
	O4108	O	0.446779	-0.455467	0.459489
	O4109	O	0.437486	-0.370526	0.420285
	O4110	O	0.437518	-0.120383	0.454478
	O4111	O	0.490793	-0.456309	0.477410
	O4112	O	0.428274	-0.453771	0.459777
	O4113	O	0.384267	-0.454121	0.477763
	O4114	O	0.428198	-0.285118	0.459333
	O4115	O	0.428340	-0.203497	0.414891
	O4116	O	0.384305	-0.204440	0.397122
	O4117	O	0.446716	-0.287254	0.459740
	O4118	O	0.446788	-0.205696	0.415278
	O4119	O	0.490778	-0.206771	0.397213
	O4120	O	0.384163	-0.285695	0.477205
	O4121	O	0.428201	-0.035258	0.415354
	O4122	O	0.384194	-0.036158	0.397370
	O4123	O	0.490731	-0.038420	0.396897
	O4124	O	0.446699	-0.037233	0.415003
	O4125	O	0.490731	-0.287961	0.477523
	O4126	O	0.374978	-0.118695	0.482744
	O4127	O	0.500001	-0.373025	0.391870
	C4128	C	0.473085	-0.281796	0.469918
	C4129	C	0.477647	-0.372055	0.470811
	C4130	C	0.473174	-0.462168	0.469485
	C4131	C	0.464369	-0.461961	0.467340
	C4132	C	0.459819	-0.371722	0.466365
	C4133	C	0.464288	-0.281654	0.467792
	C4134	C	0.450434	-0.371388	0.461564
	C4135	C	0.487069	-0.371972	0.475457
	C4136	C	0.424542	-0.369346	0.461600
	C4137	C	0.415140	-0.369471	0.466299
	C4138	C	0.410559	-0.279434	0.467216
	C4139	C	0.401756	-0.279668	0.469358
	C4140	C	0.397324	-0.370057	0.470917
	C4141	C	0.401913	-0.460017	0.470029
	C4142	C	0.410698	-0.459766	0.467777
	C4143	C	0.387895	-0.369881	0.475485
	C4144	C	0.424572	-0.119306	0.413073
	C4145	C	0.415146	-0.119566	0.408492
	C4146	C	0.410547	-0.029549	0.407668
	C4147	C	0.401760	-0.029873	0.405527
	C4148	C	0.397334	-0.120062	0.403915
	C4149	C	0.401932	-0.210097	0.404698
	C4150	C	0.410724	-0.209774	0.406848
	C4151	C	0.387934	-0.120288	0.399346
	C4152	C	0.450428	-0.121486	0.413159
	C4153	C	0.459844	-0.121562	0.408472
	C4154	C	0.464392	-0.211851	0.407539
	C4155	C	0.473176	-0.212118	0.405369
	C4156	C	0.477655	-0.122051	0.403815
	C4157	C	0.473111	-0.031795	0.404718
	C4158	C	0.464323	-0.031546	0.406961
	C4159	C	0.487061	-0.122363	0.399039
	H4160	H	0.476644	-0.282206	0.404824
	H4161	H	0.461035	-0.282216	0.408578
	H4162	H	0.476424	-0.211553	0.471004
	H4163	H	0.460864	-0.211319	0.467247
	H4164	H	0.437597	-0.370851	0.401922
	H4165	H	0.437549	-0.120424	0.472824
	H4166	H	0.375124	-0.119151	0.464446
	H4167	H	0.500090	-0.373150	0.410187
	H4168	H	0.414222	-0.279705	0.407197
	H4169	H	0.398599	-0.280609	0.403463
	H4170	H	0.398266	-0.209385	0.469912
	H4171	H	0.413883	-0.209143	0.466156
	H4172	H	0.398277	0.039940	0.404946
	H4173	H	0.413861	0.041053	0.408602
	H4174	H	0.414148	-0.529805	0.467155
	H4175	H	0.398588	-0.530498	0.471029
	H4176	H	0.460993	-0.532207	0.466404
	H4177	H	0.476604	-0.532410	0.470181
	H4178	H	0.460872	0.038681	0.407588
	H4179	H	0.476460	0.038213	0.403716
	Al4180	Al	0.437501	0.004606	0.437413
	Al4181	Al	0.437481	0.254636	0.437313
	Al4182	Al	0.375014	0.255742	0.374800
	Al4183	Al	0.375001	0.005474	0.374922
	O4184	O	0.446808	0.044668	0.459463
	O4185	O	0.437498	0.129825	0.420311
	O4186	O	0.437492	0.379438	0.454397
	O4187	O	0.490808	0.043919	0.477239
	O4188	O	0.428292	0.046614	0.459891
	O4189	O	0.384277	0.046191	0.477734
	O4190	O	0.428211	0.214855	0.459435
	O4191	O	0.428327	0.296539	0.414857
	O4192	O	0.384324	0.295448	0.396876
	O4193	O	0.446713	0.213069	0.459821
	O4194	O	0.446735	0.294652	0.415101
	O4195	O	0.490790	0.293650	0.397372
	O4196	O	0.384164	0.214722	0.477340
	O4197	O	0.428171	0.464824	0.415441
	O4198	O	0.384147	0.463717	0.397454
	O4199	O	0.490708	0.462067	0.397059
	O4200	O	0.446668	0.463156	0.414985
	O4201	O	0.490700	0.212113	0.477714
	O4202	O	0.374966	0.381017	0.482772
	O4203	O	0.500034	0.126730	0.391900
	C4204	C	0.473083	0.218545	0.470027
	C4205	C	0.477639	0.128405	0.470912
	C4206	C	0.473160	0.038355	0.469433
	C4207	C	0.464383	0.038493	0.467278
	C4208	C	0.459833	0.128664	0.466388
	C4209	C	0.464299	0.218712	0.467888
	C4210	C	0.450449	0.128885	0.461725
	C4211	C	0.487039	0.127977	0.475502
	C4212	C	0.424557	0.130835	0.461670
	C4213	C	0.415153	0.131075	0.466366
	C4214	C	0.410570	0.221101	0.467271
	C4215	C	0.401774	0.220927	0.469439
	C4216	C	0.397311	0.130778	0.470772
	C4217	C	0.401903	0.040841	0.469956
	C4218	C	0.410709	0.040864	0.467837
	C4219	C	0.387917	0.130503	0.475564
	C4220	C	0.424563	0.380457	0.413117
	C4221	C	0.415164	0.380590	0.408392
	C4222	C	0.410571	0.470391	0.407556
	C4223	C	0.401774	0.469898	0.405354
	C4224	C	0.397343	0.379852	0.403889
	C4225	C	0.401932	0.290023	0.404628
	C4226	C	0.410727	0.290437	0.406763
	C4227	C	0.387929	0.379729	0.399223
	C4228	C	0.450402	0.378659	0.413055
	C4229	C	0.459810	0.378582	0.408379
	C4230	C	0.464360	0.288308	0.407289
	C4231	C	0.473155	0.287986	0.405189
	C4232	C	0.477626	0.378032	0.403861
	C4233	C	0.473079	0.468211	0.404784
	C4234	C	0.464280	0.468569	0.406898
	C4235	C	0.487054	0.377865	0.399224
	H4236	H	0.476571	0.217472	0.404568
	H4237	H	0.460983	0.218152	0.408244
	H4238	H	0.476472	0.288579	0.470971
	H4239	H	0.460860	0.289124	0.467296
	H4240	H	0.437549	0.129364	0.401942
	H4241	H	0.437626	0.379446	0.472727
	H4242	H	0.375083	0.381331	0.464454
	H4243	H	0.500114	0.126243	0.410268
	H4244	H	0.414181	0.220257	0.407176
	H4245	H	0.398614	0.219620	0.403475
	H4246	H	0.398351	0.291563	0.469991
	H4247	H	0.413901	0.291264	0.466187
	H4248	H	0.398336	0.540050	0.404833
	H4249	H	0.413914	0.540788	0.408658
	H4250	H	0.414134	-0.029354	0.467171
	H4251	H	0.398547	-0.029474	0.470901
	H4252	H	0.461004	-0.031414	0.466212
	H4253	H	0.476580	-0.031997	0.469951
	H4254	H	0.460883	0.539166	0.407574
	H4255	H	0.476479	0.538189	0.403874
	Al4256	Al	0.437530	-0.495159	0.562264
	Al4257	Al	0.437467	-0.245136	0.562312
	Al4258	Al	0.374987	-0.243666	0.499789
	Al4259	Al	0.374956	-0.493717	0.499869
	O4260	O	0.446782	-0.455036	0.584443
	O4261	O	0.437453	-0.370265	0.545249
	O4262	O	0.437471	-0.120422	0.579317
	O4263	O	0.490762	-0.456298	0.602719
	O4264	O	0.428291	-0.453693	0.584689
	O4265	O	0.384307	-0.453935	0.602780
	O4266	O	0.428192	-0.285291	0.584483
	O4267	O	0.428265	-0.203793	0.539878
	O4268	O	0.384278	-0.203597	0.521837
	O4269	O	0.446657	-0.286937	0.584745
	O4270	O	0.446708	-0.204993	0.539931
	O4271	O	0.490791	-0.206312	0.522249
	O4272	O	0.384151	-0.285875	0.602366
	O4273	O	0.428211	-0.035320	0.540213
	O4274	O	0.384151	-0.035432	0.522364
	O4275	O	0.490700	-0.037721	0.521840
	O4276	O	0.446718	-0.036825	0.539901
	O4277	O	0.490714	-0.287996	0.602876
	O4278	O	0.375023	-0.119211	0.607937
	O4279	O	0.500040	-0.373122	0.516764
	C4280	C	0.473100	-0.281160	0.594938
	C4281	C	0.477657	-0.371504	0.595888
	C4282	C	0.473182	-0.461474	0.594385
	C4283	C	0.464389	-0.461380	0.592232
	C4284	C	0.459826	-0.371081	0.591329
	C4285	C	0.464295	-0.281030	0.592840
	C4286	C	0.450419	-0.370969	0.586698
	C4287	C	0.487043	-0.371966	0.600600
	C4288	C	0.424559	-0.369552	0.586612
	C4289	C	0.415158	-0.369328	0.591264
	C4290	C	0.410583	-0.279161	0.592041
	C4291	C	0.401789	-0.279140	0.594295
	C4292	C	0.397341	-0.369237	0.595971
	C4293	C	0.401919	-0.459296	0.595108
	C4294	C	0.410709	-0.459337	0.592809
	C4295	C	0.387928	-0.369680	0.600651
	C4296	C	0.424555	-0.119219	0.537898
	C4297	C	0.415145	-0.119663	0.533271
	C4298	C	0.410552	-0.029483	0.532411
	C4299	C	0.401766	-0.029588	0.530274
	C4300	C	0.397321	-0.119688	0.528710
	C4301	C	0.401897	-0.210002	0.529587
	C4302	C	0.410690	-0.209755	0.531667
	C4303	C	0.387918	-0.119489	0.524179
	C4304	C	0.450413	-0.120961	0.537929
	C4305	C	0.459827	-0.121249	0.533384
	C4306	C	0.464377	-0.211478	0.532308
	C4307	C	0.473182	-0.211608	0.530143
	C4308	C	0.477650	-0.121575	0.528783
	C4309	C	0.473087	-0.031367	0.529673
	C4310	C	0.464289	-0.031004	0.531867
	C4311	C	0.487053	-0.122021	0.524157
	H4312	H	0.476636	-0.281870	0.529502
	H4313	H	0.461022	-0.281476	0.533194
	H4314	H	0.476453	-0.210913	0.595972
	H4315	H	0.460858	-0.210702	0.592351
	H4316	H	0.437287	-0.370037	0.526863
	H4317	H	0.437331	-0.120465	0.597677
	H4318	H	0.375039	-0.119139	0.589601
	H4319	H	0.499971	-0.372928	0.535167
	H4320	H	0.414161	-0.279761	0.532143
	H4321	H	0.398540	-0.280226	0.528621
	H4322	H	0.398326	-0.209052	0.594800
	H4323	H	0.413911	-0.208798	0.590800
	H4324	H	0.398299	0.040493	0.529805
	H4325	H	0.413890	0.040798	0.533457
	H4326	H	0.414151	-0.529816	0.592187
	H4327	H	0.398580	-0.529520	0.596205
	H4328	H	0.461030	-0.531499	0.591300
	H4329	H	0.476626	-0.531819	0.595005
	H4330	H	0.460857	0.039214	0.532385
	H4331	H	0.476416	0.039044	0.528632
	Al4332	Al	0.437494	0.005000	0.562217
	Al4333	Al	0.437494	0.255148	0.562043
	Al4334	Al	0.375006	0.256267	0.499799
	Al4335	Al	0.374975	0.006379	0.499755
	O4336	O	0.446743	0.045163	0.584621
	O4337	O	0.437495	0.129481	0.545151
	O4338	O	0.437468	0.379904	0.579169
	O4339	O	0.490768	0.043653	0.602738
	O4340	O	0.428266	0.046389	0.584549
	O4341	O	0.384323	0.045862	0.602948
	O4342	O	0.428212	0.214695	0.584365
	O4343	O	0.428271	0.296246	0.539737
	O4344	O	0.384289	0.295869	0.522005
	O4345	O	0.446658	0.213401	0.584744
	O4346	O	0.446740	0.295303	0.539782
	O4347	O	0.490801	0.293753	0.522372
	O4348	O	0.384175	0.214065	0.602354
	O4349	O	0.428216	0.464663	0.540092
	O4350	O	0.384160	0.464102	0.522254
	O4351	O	0.490752	0.462028	0.522132
	O4352	O	0.446704	0.463726	0.539718
	O4353	O	0.490715	0.211908	0.602877
	O4354	O	0.375011	0.380996	0.607735
	O4355	O	0.500004	0.126748	0.516889
	C4356	C	0.473089	0.218376	0.595034
	C4357	C	0.477658	0.128365	0.595936
	C4358	C	0.473161	0.038421	0.594657
	C4359	C	0.464370	0.038564	0.592398
	C4360	C	0.459809	0.128700	0.591389
	C4361	C	0.464295	0.218610	0.592803
	C4362	C	0.450399	0.129092	0.586695
	C4363	C	0.487060	0.127909	0.600764
	C4364	C	0.424546	0.130668	0.586456
	C4365	C	0.415160	0.130452	0.591287
	C4366	C	0.410580	0.220618	0.592126
	C4367	C	0.401781	0.220546	0.594432
	C4368	C	0.397349	0.130262	0.596018
	C4369	C	0.401933	0.040233	0.595076
	C4370	C	0.410721	0.040299	0.592797
	C4371	C	0.387953	0.130089	0.600670
	C4372	C	0.424538	0.380558	0.538029
	C4373	C	0.415131	0.380945	0.533404
	C4374	C	0.410539	0.470768	0.532773
	C4375	C	0.401731	0.470552	0.530546
	C4376	C	0.397308	0.380363	0.528879
	C4377	C	0.401901	0.290481	0.529543
	C4378	C	0.410706	0.290704	0.531770
	C4379	C	0.387922	0.380073	0.524162
	C4380	C	0.450423	0.379316	0.537797
	C4381	C	0.459851	0.378785	0.533220
	C4382	C	0.464411	0.288448	0.532358
	C4383	C	0.473211	0.288272	0.530316
	C4384	C	0.477682	0.378465	0.528917
	C4385	C	0.473124	0.468764	0.529760
	C4386	C	0.464325	0.468818	0.531873
	C4387	C	0.487104	0.378186	0.524277
	H4388	H	0.476633	0.217982	0.529656
	H4389	H	0.461040	0.218284	0.533295
	H4390	H	0.476467	0.288544	0.595973
	H4391	H	0.460856	0.288869	0.592073
	H4392	H	0.437412	0.129365	0.526913
	H4393	H	0.437274	0.380004	0.597581
	H4394	H	0.375026	0.380918	0.589340
	H4395	H	0.499935	0.126338	0.535326
	H4396	H	0.414143	0.220362	0.532089
	H4397	H	0.398575	0.220299	0.528218
	H4398	H	0.398328	0.290956	0.595082
	H4399	H	0.413936	0.290838	0.590991
	H4400	H	0.398312	0.540784	0.529971
	H4401	H	0.413883	0.541154	0.533948
	H4402	H	0.414154	-0.030066	0.592228
	H4403	H	0.398590	-0.030283	0.596201
	H4404	H	0.461003	-0.031333	0.591362
	H4405	H	0.476602	-0.031601	0.595364
	H4406	H	0.460904	0.539084	0.532443
	H4407	H	0.476491	0.538948	0.528742
	Al4408	Al	0.437504	-0.495416	0.687505
	Al4409	Al	0.437484	-0.245517	0.687426
	Al4410	Al	0.374970	-0.243855	0.624927
	Al4411	Al	0.375007	-0.493894	0.624752
	O4412	O	0.446770	-0.455410	0.709723
	O4413	O	0.437516	-0.370395	0.670452
	O4414	O	0.437506	-0.120520	0.704614
	O4415	O	0.490806	-0.456969	0.727575
	O4416	O	0.428303	-0.453828	0.709882
	O4417	O	0.384320	-0.454629	0.727895
	O4418	O	0.428191	-0.285512	0.709563
	O4419	O	0.428338	-0.203930	0.665011
	O4420	O	0.384319	-0.204204	0.646963
	O4421	O	0.446715	-0.286979	0.709790
	O4422	O	0.446782	-0.205026	0.665264
	O4423	O	0.490792	-0.206324	0.647422
	O4424	O	0.384181	-0.286108	0.727462
	O4425	O	0.428260	-0.035781	0.665314
	O4426	O	0.384214	-0.035941	0.647352
	O4427	O	0.490751	-0.037887	0.647180
	O4428	O	0.446734	-0.036864	0.665188
	O4429	O	0.490750	-0.288404	0.727867
	O4430	O	0.374983	-0.119199	0.732961
	O4431	O	0.499998	-0.373106	0.642131
	C4432	C	0.473133	-0.282093	0.720179
	C4433	C	0.477683	-0.372342	0.721156
	C4434	C	0.473218	-0.462397	0.719652
	C4435	C	0.464423	-0.462072	0.717434
	C4436	C	0.459863	-0.371686	0.716558
	C4437	C	0.464337	-0.281777	0.718019
	C4438	C	0.450439	-0.371325	0.711849
	C4439	C	0.487094	-0.372604	0.725740
	C4440	C	0.424557	-0.369704	0.711780
	C4441	C	0.415154	-0.369737	0.716589
	C4442	C	0.410568	-0.279748	0.717387
	C4443	C	0.401777	-0.279794	0.719547
	C4444	C	0.397341	-0.370011	0.721075
	C4445	C	0.401922	-0.460065	0.720021
	C4446	C	0.410716	-0.459963	0.717857
	C4447	C	0.387957	-0.370258	0.725715
	C4448	C	0.424582	-0.119708	0.663120
	C4449	C	0.415182	-0.119545	0.658532
	C4450	C	0.410593	-0.029612	0.657596
	C4451	C	0.401795	-0.029996	0.655397
	C4452	C	0.397361	-0.120219	0.653880
	C4453	C	0.401943	-0.210227	0.654876
	C4454	C	0.410736	-0.209837	0.657069
	C4455	C	0.387951	-0.119999	0.649226
	C4456	C	0.450445	-0.121067	0.663225
	C4457	C	0.459857	-0.121568	0.658603
	C4458	C	0.464386	-0.211930	0.657658
	C4459	C	0.473186	-0.211898	0.655434
	C4460	C	0.477655	-0.121822	0.653980
	C4461	C	0.473105	-0.031742	0.654876
	C4462	C	0.464308	-0.031592	0.657092
	C4463	C	0.487086	-0.121939	0.649301
	H4464	H	0.476657	-0.281982	0.654849
	H4465	H	0.461049	-0.282132	0.658632
	H4466	H	0.476491	-0.211953	0.721130
	H4467	H	0.460887	-0.211440	0.717399
	H4468	H	0.437545	-0.370224	0.652097
	H4469	H	0.437575	-0.119951	0.722907
	H4470	H	0.374891	-0.118877	0.714569
	H4471	H	0.499958	-0.373668	0.660453
	H4472	H	0.414175	-0.280034	0.657689
	H4473	H	0.398587	-0.280482	0.653953
	H4474	H	0.398333	-0.209584	0.720299
	H4475	H	0.413925	-0.209427	0.716502
	H4476	H	0.398339	0.040363	0.654891
	H4477	H	0.413928	0.040860	0.658629
	H4478	H	0.414151	-0.530215	0.717298
	H4479	H	0.398565	-0.530580	0.721104
	H4480	H	0.461055	-0.532187	0.716402
	H4481	H	0.476658	-0.532504	0.720241
	H4482	H	0.460882	0.038484	0.657680
	H4483	H	0.476457	0.038715	0.653937
	Al4484	Al	0.437494	0.004623	0.687462
	Al4485	Al	0.437487	0.254667	0.687581
	Al4486	Al	0.374995	0.256235	0.624973
	Al4487	Al	0.374971	0.005711	0.624891
	O4488	O	0.446764	0.044597	0.709549
	O4489	O	0.437497	0.129937	0.670509
	O4490	O	0.437528	0.379566	0.704596
	O4491	O	0.490780	0.043223	0.727692
	O4492	O	0.428304	0.046011	0.709923
	O4493	O	0.384295	0.045371	0.727897
	O4494	O	0.428240	0.214212	0.709741
	O4495	O	0.428305	0.296459	0.665199
	O4496	O	0.384324	0.295832	0.646941
	O4497	O	0.446729	0.213041	0.709920
	O4498	O	0.446737	0.295141	0.665405
	O4499	O	0.490784	0.293646	0.647406
	O4500	O	0.384156	0.213481	0.727317
	O4501	O	0.428190	0.464909	0.665440
	O4502	O	0.384190	0.464242	0.647218
	O4503	O	0.490726	0.461984	0.647391
	O4504	O	0.446727	0.463378	0.665207
	O4505	O	0.490686	0.211577	0.727967
	O4506	O	0.374974	0.380684	0.733035
	O4507	O	0.499998	0.126829	0.641967
	C4508	C	0.473080	0.217927	0.720187
	C4509	C	0.477637	0.127620	0.721166
	C4510	C	0.473165	0.037601	0.719775
	C4511	C	0.464363	0.037756	0.717563
	C4512	C	0.459825	0.128057	0.716608
	C4513	C	0.464286	0.218109	0.717994
	C4514	C	0.450436	0.128558	0.711825
	C4515	C	0.487040	0.127356	0.725921
	C4516	C	0.424574	0.130097	0.711870
	C4517	C	0.415166	0.130068	0.716376
	C4518	C	0.410593	0.220011	0.717256
	C4519	C	0.401788	0.219860	0.719410
	C4520	C	0.397336	0.129730	0.720968
	C4521	C	0.401916	0.039712	0.720014
	C4522	C	0.410710	0.039926	0.717868
	C4523	C	0.387920	0.129492	0.725606
	C4524	C	0.424561	0.380605	0.663273
	C4525	C	0.415171	0.380743	0.658470
	C4526	C	0.410587	0.470803	0.657598
	C4527	C	0.401790	0.470503	0.655422
	C4528	C	0.397347	0.380128	0.653955
	C4529	C	0.401930	0.290103	0.654842
	C4530	C	0.410727	0.290512	0.657011
	C4531	C	0.387941	0.380044	0.649149
	C4532	C	0.450409	0.378906	0.663238
	C4533	C	0.459820	0.378521	0.658481
	C4534	C	0.464361	0.288169	0.657565
	C4535	C	0.473170	0.287994	0.655392
	C4536	C	0.477645	0.378005	0.653965
	C4537	C	0.473093	0.468269	0.654895
	C4538	C	0.464293	0.468526	0.657087
	C4539	C	0.487051	0.377982	0.649313
	H4540	H	0.476566	0.217492	0.654963
	H4541	H	0.460980	0.218136	0.658763
	H4542	H	0.476459	0.288000	0.721026
	H4543	H	0.460883	0.288472	0.717153
	H4544	H	0.437587	0.129982	0.652055
	H4545	H	0.437580	0.379239	0.722916
	H4546	H	0.374837	0.380667	0.714669
	H4547	H	0.499907	0.126339	0.660361
	H4548	H	0.414206	0.220356	0.657626
	H4549	H	0.398610	0.219700	0.653790
	H4550	H	0.398313	0.289723	0.719954
	H4551	H	0.413939	0.290238	0.716222
	H4552	H	0.398314	0.540375	0.654828
	H4553	H	0.413920	0.541002	0.658667
	H4554	H	0.414154	-0.030050	0.717318
	H4555	H	0.398579	-0.030564	0.721007
	H4556	H	0.460995	-0.032199	0.716392
	H4557	H	0.476598	-0.032618	0.720199
	H4558	H	0.460898	0.538913	0.657910
	H4559	H	0.476459	0.538393	0.654024
	Al4560	Al	0.437524	-0.496216	0.812733
	Al4561	Al	0.437484	-0.246165	0.812608
	Al4562	Al	0.374986	-0.244279	0.749928
	Al4563	Al	0.375015	-0.494479	0.749970
	O4564	O	0.446780	-0.455549	0.834969
	O4565	O	0.437501	-0.371205	0.795600
	O4566	O	0.437501	-0.120922	0.829524
	O4567	O	0.490780	-0.457101	0.852646
	O4568	O	0.428278	-0.454656	0.834986
	O4569	O	0.384293	-0.454381	0.852978
	O4570	O	0.428228	-0.286294	0.834832
	O4571	O	0.428248	-0.204649	0.790255
	O4572	O	0.384278	-0.204220	0.772111
	O4573	O	0.446691	-0.287389	0.835074
	O4574	O	0.446761	-0.205794	0.790269
	O4575	O	0.490787	-0.206632	0.772471
	O4576	O	0.384141	-0.286250	0.852445
	O4577	O	0.428237	-0.036328	0.790205
	O4578	O	0.384150	-0.035968	0.772518
	O4579	O	0.490720	-0.038218	0.772353
	O4580	O	0.446683	-0.037611	0.790082
	O4581	O	0.490734	-0.288921	0.852796
	O4582	O	0.374964	-0.119441	0.858037
	O4583	O	0.499969	-0.373692	0.766991
	C4584	C	0.473115	-0.282059	0.845005
	C4585	C	0.477661	-0.372249	0.845989
	C4586	C	0.473173	-0.462026	0.844780
	C4587	C	0.464382	-0.461901	0.842611
	C4588	C	0.459835	-0.371669	0.841621
	C4589	C	0.464326	-0.281927	0.842849
	C4590	C	0.450422	-0.371503	0.836969
	C4591	C	0.487061	-0.372810	0.850659
	C4592	C	0.424550	-0.370308	0.836885
	C4593	C	0.415147	-0.369884	0.841414
	C4594	C	0.410577	-0.279866	0.842416
	C4595	C	0.401774	-0.279979	0.844568
	C4596	C	0.397327	-0.370027	0.846010
	C4597	C	0.401907	-0.460150	0.845147
	C4598	C	0.410704	-0.460167	0.842962
	C4599	C	0.387924	-0.370069	0.850687
	C4600	C	0.424556	-0.120389	0.788206
	C4601	C	0.415134	-0.119983	0.783579
	C4602	C	0.410563	-0.029993	0.782517
	C4603	C	0.401770	-0.030087	0.780350
	C4604	C	0.397313	-0.120152	0.778938
	C4605	C	0.401891	-0.210204	0.779919
	C4606	C	0.410687	-0.210162	0.782070
	C4607	C	0.387907	-0.120110	0.774324
	C4608	C	0.450415	-0.121882	0.788059
	C4609	C	0.459821	-0.121927	0.783597
	C4610	C	0.464378	-0.212265	0.782549
	C4611	C	0.473175	-0.212271	0.780391
	C4612	C	0.477652	-0.122143	0.779075
	C4613	C	0.473087	-0.031934	0.780100
	C4614	C	0.464291	-0.031919	0.782253
	C4615	C	0.487059	-0.122258	0.774433
	H4616	H	0.476613	-0.282414	0.779941
	H4617	H	0.461017	-0.282167	0.783627
	H4618	H	0.476479	-0.212110	0.846017
	H4619	H	0.460894	-0.211633	0.842224
	H4620	H	0.437441	-0.371233	0.777313
	H4621	H	0.437462	-0.120642	0.847903
	H4622	H	0.374911	-0.119666	0.839636
	H4623	H	0.499957	-0.373363	0.785317
	H4624	H	0.414142	-0.280171	0.782721
	H4625	H	0.398510	-0.280492	0.779049
	H4626	H	0.398346	-0.209963	0.845139
	H4627	H	0.413925	-0.209405	0.841418
	H4628	H	0.398331	0.040144	0.779829
	H4629	H	0.413918	0.040164	0.783565
	H4630	H	0.414140	-0.530494	0.842382
	H4631	H	0.398562	-0.530457	0.846181
	H4632	H	0.461017	-0.531873	0.841774
	H4633	H	0.476606	-0.532274	0.845599
	H4634	H	0.460849	0.038441	0.783145
	H4635	H	0.476443	0.038361	0.779517
	Al4636	Al	0.437530	0.003722	0.812410
	Al4637	Al	0.437502	0.253791	0.812597
	Al4638	Al	0.375034	0.255274	0.750061
	Al4639	Al	0.375004	0.005633	0.750001
	O4640	O	0.446748	0.044071	0.834897
	O4641	O	0.437509	0.129047	0.795499
	O4642	O	0.437509	0.378563	0.829696
	O4643	O	0.490794	0.042879	0.852654
	O4644	O	0.428281	0.045496	0.834840
	O4645	O	0.384266	0.045926	0.853042
	O4646	O	0.428194	0.213628	0.834732
	O4647	O	0.428346	0.295356	0.790034
	O4648	O	0.384334	0.295528	0.772052
	O4649	O	0.446694	0.212361	0.835129
	O4650	O	0.446768	0.293843	0.790414
	O4651	O	0.490803	0.293309	0.772380
	O4652	O	0.384203	0.214392	0.852676
	O4653	O	0.428239	0.463609	0.790503
	O4654	O	0.384234	0.463672	0.772446
	O4655	O	0.490706	0.461338	0.772046
	O4656	O	0.446723	0.462342	0.790336
	O4657	O	0.490724	0.211366	0.852767
	O4658	O	0.374934	0.380973	0.858057
	O4659	O	0.499972	0.126375	0.767034
	C4660	C	0.473113	0.217826	0.845039
	C4661	C	0.477671	0.127661	0.846005
	C4662	C	0.473206	0.037593	0.844617
	C4663	C	0.464412	0.037765	0.842499
	C4664	C	0.459851	0.127815	0.841532
	C4665	C	0.464318	0.217855	0.842952
	C4666	C	0.450433	0.128224	0.836965
	C4667	C	0.487061	0.127323	0.850572
	C4668	C	0.424546	0.129666	0.836880
	C4669	C	0.415128	0.129757	0.841566
	C4670	C	0.410558	0.219903	0.842583
	C4671	C	0.401761	0.219904	0.844726
	C4672	C	0.397318	0.129782	0.846172
	C4673	C	0.401883	0.039726	0.845120
	C4674	C	0.410671	0.039709	0.842949
	C4675	C	0.387920	0.129920	0.850794
	C4676	C	0.424597	0.379465	0.788322
	C4677	C	0.415196	0.379545	0.783488
	C4678	C	0.410637	0.469583	0.782534
	C4679	C	0.401840	0.469532	0.780381
	C4680	C	0.397389	0.379363	0.778948
	C4681	C	0.401961	0.289346	0.779982
	C4682	C	0.410752	0.289453	0.782109
	C4683	C	0.387976	0.379626	0.774261
	C4684	C	0.450442	0.377910	0.788354
	C4685	C	0.459845	0.377706	0.783648
	C4686	C	0.464410	0.287638	0.782696
	C4687	C	0.473201	0.287602	0.780504
	C4688	C	0.477660	0.377605	0.779048
	C4689	C	0.473097	0.467820	0.779901
	C4690	C	0.464303	0.467829	0.782151
	C4691	C	0.487071	0.377364	0.774279
	H4692	H	0.476637	0.217378	0.779866
	H4693	H	0.461064	0.217472	0.783757
	H4694	H	0.476479	0.287900	0.846111
	H4695	H	0.460855	0.287977	0.842507
	H4696	H	0.437428	0.129002	0.776972
	H4697	H	0.437478	0.378488	0.848138
	H4698	H	0.374754	0.381266	0.839762
	H4699	H	0.499968	0.126959	0.785348
	H4700	H	0.414186	0.219225	0.782690
	H4701	H	0.398614	0.218958	0.778946
	H4702	H	0.398305	0.289892	0.845273
	H4703	H	0.413917	0.290089	0.841605
	H4704	H	0.398403	0.539788	0.779638
	H4705	H	0.413981	0.539607	0.783453
	H4706	H	0.414134	-0.030514	0.842325
	H4707	H	0.398521	-0.030616	0.846016
	H4708	H	0.461061	-0.032337	0.841609
	H4709	H	0.476632	-0.032709	0.845344
	H4710	H	0.460865	0.538134	0.782756
	H4711	H	0.476455	0.538083	0.778838
	Al4712	Al	0.437496	-0.495988	0.937504
	Al4713	Al	0.437507	-0.246049	0.937655
	Al4714	Al	0.374990	-0.244396	0.875084
	Al4715	Al	0.374998	-0.494042	0.875094
	O4716	O	0.446775	-0.455939	0.959754
	O4717	O	0.437460	-0.370557	0.920585
	O4718	O	0.437448	-0.120893	0.954781
	O4719	O	0.490750	-0.456997	0.977943
	O4720	O	0.428303	-0.454025	0.960049
	O4721	O	0.384236	-0.453460	0.977793
	O4722	O	0.428154	-0.285683	0.959671
	O4723	O	0.428310	-0.204406	0.915036
	O4724	O	0.384316	-0.204640	0.897022
	O4725	O	0.446721	-0.287652	0.959992
	O4726	O	0.446763	-0.205602	0.915598
	O4727	O	0.490772	-0.207182	0.897620
	O4728	O	0.384171	-0.285056	0.977621
	O4729	O	0.428203	-0.035934	0.915630
	O4730	O	0.384171	-0.036412	0.897507
	O4731	O	0.490722	-0.038869	0.897275
	O4732	O	0.446731	-0.037021	0.915346
	O4733	O	0.490725	-0.288758	0.977713
	O4734	O	0.375016	-0.118364	0.983091
	O4735	O	0.500025	-0.374053	0.892005
	C4736	C	0.473127	-0.282274	0.970009
	C4737	C	0.477658	-0.372481	0.971113
	C4738	C	0.473185	-0.462445	0.969862
	C4739	C	0.464396	-0.462251	0.967612
	C4740	C	0.459862	-0.372047	0.966449
	C4741	C	0.464342	-0.282151	0.967822
	C4742	C	0.450449	-0.371814	0.961787
	C4743	C	0.487055	-0.372788	0.975756
	C4744	C	0.424533	-0.369690	0.961849
	C4745	C	0.415129	-0.369943	0.966470
	C4746	C	0.410571	-0.279637	0.967349
	C4747	C	0.401773	-0.279520	0.969472
	C4748	C	0.397309	-0.369777	0.970953
	C4749	C	0.401864	-0.459945	0.970138
	C4750	C	0.410672	-0.460037	0.967959
	C4751	C	0.387890	-0.369436	0.975653
	C4752	C	0.424569	-0.120235	0.913402
	C4753	C	0.415167	-0.120246	0.908705
	C4754	C	0.410582	-0.030060	0.907766
	C4755	C	0.401783	-0.030202	0.905530
	C4756	C	0.397346	-0.120469	0.904013
	C4757	C	0.401927	-0.210644	0.904985
	C4758	C	0.410729	-0.210475	0.907214
	C4759	C	0.387943	-0.120515	0.899383
	C4760	C	0.450437	-0.121608	0.913446
	C4761	C	0.459831	-0.121692	0.908621
	C4762	C	0.464380	-0.211802	0.907624
	C4763	C	0.473169	-0.212099	0.905422
	C4764	C	0.477654	-0.122190	0.904062
	C4765	C	0.473107	-0.031855	0.905085
	C4766	C	0.464311	-0.031586	0.907335
	C4767	C	0.487050	-0.122768	0.899412
	H4768	H	0.476564	-0.282670	0.904734
	H4769	H	0.460995	-0.281622	0.908528
	H4770	H	0.476485	-0.212173	0.971069
	H4771	H	0.460900	-0.211841	0.967265
	H4772	H	0.437353	-0.370623	0.902213
	H4773	H	0.437394	-0.120586	0.973086
	H4774	H	0.375192	-0.118523	0.964752
	H4775	H	0.500119	-0.374995	0.910255
	H4776	H	0.414163	-0.280724	0.907624
	H4777	H	0.398582	-0.280962	0.903835
	H4778	H	0.398365	-0.209098	0.969920
	H4779	H	0.413925	-0.209083	0.966290
	H4780	H	0.398341	0.040018	0.904793
	H4781	H	0.413934	0.040429	0.908567
	H4782	H	0.414099	-0.530372	0.967375
	H4783	H	0.398511	-0.529892	0.971204
	H4784	H	0.461033	-0.532152	0.966971
	H4785	H	0.476612	-0.532483	0.970835
	H4786	H	0.460911	0.038799	0.908040
	H4787	H	0.476501	0.037976	0.904058
	Al4788	Al	0.437516	0.004255	0.937670
	Al4789	Al	0.437497	0.254300	0.937606
	Al4790	Al	0.375024	0.255725	0.875059
	Al4791	Al	0.374987	0.005759	0.875139
	O4792	O	0.446798	0.044154	0.959699
	O4793	O	0.437500	0.129283	0.920614
	O4794	O	0.437485	0.379443	0.954730
	O4795	O	0.490763	0.042987	0.977627
	O4796	O	0.428258	0.045782	0.959866
	O4797	O	0.384276	0.046378	0.977893
	O4798	O	0.428229	0.213994	0.959751
	O4799	O	0.428322	0.296359	0.915044
	O4800	O	0.384282	0.295699	0.897266
	O4801	O	0.446677	0.212569	0.960116
	O4802	O	0.446764	0.294510	0.915491
	O4803	O	0.490776	0.293103	0.897593
	O4804	O	0.384178	0.214590	0.977475
	O4805	O	0.428199	0.464638	0.915356
	O4806	O	0.384194	0.463762	0.897509
	O4807	O	0.490752	0.461165	0.897357
	O4808	O	0.446679	0.462656	0.915082
	O4809	O	0.490730	0.211390	0.977824
	O4810	O	0.374977	0.381355	0.983005
	O4811	O	0.500029	0.126319	0.892111
	C4812	C	0.473085	0.218074	0.969925
	C4813	C	0.477632	0.127850	0.970998
	C4814	C	0.473153	0.037809	0.969804
	C4815	C	0.464366	0.038063	0.967585
	C4816	C	0.459835	0.128244	0.966410
	C4817	C	0.464294	0.218481	0.967779
	C4818	C	0.450431	0.128393	0.961899
	C4819	C	0.487051	0.127282	0.975692
	C4820	C	0.424551	0.130050	0.961802
	C4821	C	0.415145	0.130055	0.966466
	C4822	C	0.410580	0.220042	0.967266
	C4823	C	0.401789	0.220255	0.969506
	C4824	C	0.397325	0.130270	0.970983
	C4825	C	0.401888	0.040278	0.970166
	C4826	C	0.410677	0.040105	0.967935
	C4827	C	0.387923	0.130525	0.975731
	C4828	C	0.424578	0.380453	0.913148
	C4829	C	0.415169	0.380200	0.908448
	C4830	C	0.410594	0.470251	0.907613
	C4831	C	0.401788	0.470074	0.905514
	C4832	C	0.397351	0.379923	0.904131
	C4833	C	0.401930	0.289874	0.905035
	C4834	C	0.410736	0.290000	0.907080
	C4835	C	0.387937	0.379802	0.899385
	C4836	C	0.450421	0.378548	0.913262
	C4837	C	0.459822	0.378286	0.908633
	C4838	C	0.464350	0.288119	0.907601
	C4839	C	0.473155	0.287957	0.905531
	C4840	C	0.477639	0.377788	0.904174
	C4841	C	0.473101	0.467954	0.905166
	C4842	C	0.464294	0.468145	0.907262
	C4843	C	0.487067	0.377199	0.899516
	H4844	H	0.476597	0.217741	0.904840
	H4845	H	0.461007	0.217584	0.908457
	H4846	H	0.476490	0.288155	0.970623
	H4847	H	0.460879	0.289113	0.966877
	H4848	H	0.437538	0.129296	0.902292
	H4849	H	0.437498	0.379382	0.973071
	H4850	H	0.375087	0.381245	0.964692
	H4851	H	0.500064	0.126076	0.910392
	H4852	H	0.414181	0.219835	0.907706
	H4853	H	0.398603	0.219198	0.904173
	H4854	H	0.398359	0.290483	0.970103
	H4855	H	0.413931	0.290292	0.966176
	H4856	H	0.398341	0.540119	0.905043
	H4857	H	0.413922	0.540628	0.908707
	H4858	H	0.414106	-0.030095	0.967367
	H4859	H	0.398560	-0.029862	0.971296
	H4860	H	0.460996	-0.032173	0.966564
	H4861	H	0.476558	-0.032642	0.970394
	H4862	H	0.460867	0.538223	0.907825
	H4863	H	0.476457	0.538640	0.904268
	Al4864	Al	0.562521	-0.501155	0.062510
	Al4865	Al	0.562479	-0.251087	0.062574
	Al4866	Al	0.499981	-0.248319	-0.000055
	Al4867	Al	0.499982	-0.498517	0.000107
	O4868	O	0.571775	-0.461076	0.084680
	O4869	O	0.562496	-0.375815	0.045483
	O4870	O	0.562502	-0.126067	0.079673
	O4871	O	0.615861	-0.460368	0.102387
	O4872	O	0.553313	-0.459694	0.085012
	O4873	O	0.509245	-0.458069	0.102745
	O4874	O	0.553203	-0.291343	0.084788
	O4875	O	0.553288	-0.209402	0.040154
	O4876	O	0.509237	-0.208192	0.022282
	O4877	O	0.571681	-0.292692	0.084906
	O4878	O	0.571756	-0.210801	0.040379
	O4879	O	0.615780	-0.211404	0.022487
	O4880	O	0.509218	-0.289951	0.102451
	O4881	O	0.553194	-0.041063	0.040598
	O4882	O	0.509212	-0.039948	0.022396
	O4883	O	0.615690	-0.042746	0.022061
	O4884	O	0.571665	-0.042617	0.040157
	O4885	O	0.615703	-0.292142	0.102864
	O4886	O	0.500035	-0.123260	0.107773
	O4887	O	0.624958	-0.378045	0.016963
	C4888	C	0.598064	-0.286449	0.094978
	C4889	C	0.602654	-0.376507	0.095985
	C4890	C	0.598199	-0.466682	0.094627
	C4891	C	0.589394	-0.466936	0.092495
	C4892	C	0.584821	-0.376894	0.091576
	C4893	C	0.589270	-0.286696	0.092839
	C4894	C	0.575421	-0.376959	0.086936
	C4895	C	0.612082	-0.376494	0.100643
	C4896	C	0.549545	-0.375575	0.086807
	C4897	C	0.540156	-0.375600	0.091626
	C4898	C	0.535600	-0.285381	0.092362
	C4899	C	0.526811	-0.284939	0.094402
	C4900	C	0.522317	-0.374813	0.095864
	C4901	C	0.526856	-0.465057	0.094929
	C4902	C	0.535649	-0.465413	0.092898
	C4903	C	0.512952	-0.374229	0.100639
	C4904	C	0.549555	-0.125174	0.038315
	C4905	C	0.540154	-0.124718	0.033673
	C4906	C	0.535591	-0.034564	0.032757
	C4907	C	0.526793	-0.034526	0.030557
	C4908	C	0.522333	-0.124587	0.028992
	C4909	C	0.526911	-0.214571	0.029749
	C4910	C	0.535696	-0.214657	0.031996
	C4911	C	0.512924	-0.124337	0.024383
	C4912	C	0.575409	-0.126849	0.038204
	C4913	C	0.584825	-0.127129	0.033562
	C4914	C	0.589403	-0.217330	0.032407
	C4915	C	0.598197	-0.217423	0.030256
	C4916	C	0.602659	-0.127162	0.029007
	C4917	C	0.598090	-0.036975	0.030061
	C4918	C	0.589286	-0.036939	0.032247
	C4919	C	0.612060	-0.127025	0.024336
	H4920	H	0.601595	-0.287970	0.029555
	H4921	H	0.586012	-0.287354	0.033275
	H4922	H	0.601386	-0.216032	0.095754
	H4923	H	0.585820	-0.216642	0.092068
	H4924	H	0.562619	-0.376080	0.027020
	H4925	H	0.562583	-0.126027	0.097950
	H4926	H	0.500258	-0.123299	0.089448
	H4927	H	0.624799	-0.377974	0.035367
	H4928	H	0.539128	-0.284960	0.032608
	H4929	H	0.523536	-0.284637	0.028762
	H4930	H	0.523414	-0.214390	0.094970
	H4931	H	0.538999	-0.215415	0.091275
	H4932	H	0.523354	0.035880	0.030146
	H4933	H	0.538965	0.035716	0.033914
	H4934	H	0.539067	-0.535969	0.092277
	H4935	H	0.523456	-0.534952	0.096041
	H4936	H	0.586060	-0.537292	0.091449
	H4937	H	0.601681	-0.536840	0.095137
	H4938	H	0.585879	0.033455	0.032960
	H4939	H	0.601477	0.032946	0.029189
	Al4940	Al	0.562495	-0.001090	0.062667
	Al4941	Al	0.562496	0.248695	0.062525
	Al4942	Al	0.499988	0.251379	0.000099
	Al4943	Al	0.500025	0.001903	-0.000092
	O4944	O	0.571819	0.038705	0.084709
	O4945	O	0.562480	0.123409	0.045585
	O4946	O	0.562482	0.373689	0.079456
	O4947	O	0.615826	0.039287	0.102666
	O4948	O	0.553294	0.040754	0.085250
	O4949	O	0.509219	0.041807	0.102754
	O4950	O	0.553190	0.208937	0.084654
	O4951	O	0.553345	0.290353	0.039933
	O4952	O	0.509231	0.291770	0.022446
	O4953	O	0.571670	0.206932	0.085003
	O4954	O	0.571802	0.288403	0.040421
	O4955	O	0.615824	0.288871	0.022317
	O4956	O	0.509206	0.210069	0.102628
	O4957	O	0.553243	0.458782	0.040276
	O4958	O	0.509225	0.460191	0.022505
	O4959	O	0.615726	0.457120	0.022212
	O4960	O	0.571734	0.457063	0.040145
	O4961	O	0.615707	0.207691	0.103090
	O4962	O	0.500036	0.376682	0.107904
	O4963	O	0.624994	0.122186	0.016975
	C4964	C	0.598093	0.213559	0.095041
	C4965	C	0.602670	0.123552	0.095990
	C4966	C	0.598214	0.033443	0.094566
	C4967	C	0.589419	0.033271	0.092324
	C4968	C	0.584849	0.123333	0.091401
	C4969	C	0.589301	0.213572	0.092828
	C4970	C	0.575436	0.122997	0.086761
	C4971	C	0.612079	0.123372	0.100829
	C4972	C	0.549555	0.124843	0.087016
	C4973	C	0.540119	0.124860	0.091395
	C4974	C	0.535552	0.215242	0.092193
	C4975	C	0.526757	0.215393	0.094261
	C4976	C	0.522298	0.125280	0.095968
	C4977	C	0.526861	0.035020	0.095121
	C4978	C	0.535664	0.034777	0.093081
	C4979	C	0.512900	0.125745	0.100491
	C4980	C	0.549601	0.374662	0.038119
	C4981	C	0.540162	0.374958	0.033391
	C4982	C	0.535609	0.465117	0.032533
	C4983	C	0.526814	0.465362	0.030407
	C4984	C	0.522332	0.375445	0.029016
	C4985	C	0.526883	0.285266	0.029920
	C4986	C	0.535681	0.285097	0.031985
	C4987	C	0.512920	0.375832	0.024426
	C4988	C	0.575458	0.372635	0.038225
	C4989	C	0.584861	0.372645	0.033545
	C4990	C	0.589440	0.282451	0.032543
	C4991	C	0.598241	0.282636	0.030373
	C4992	C	0.602677	0.372820	0.029004
	C4993	C	0.598114	0.463104	0.030074
	C4994	C	0.589315	0.462851	0.032251
	C4995	C	0.612102	0.372953	0.024338
	H4996	H	0.601705	0.212604	0.029662
	H4997	H	0.586116	0.211940	0.033404
	H4998	H	0.601439	0.283629	0.096110
	H4999	H	0.585855	0.283738	0.092182
	H5000	H	0.562488	0.123726	0.027188
	H5001	H	0.562361	0.373555	0.097837
	H5002	H	0.500045	0.376516	0.089593
	H5003	H	0.625066	0.122272	0.035336
	H5004	H	0.539108	0.214786	0.032609
	H5005	H	0.523515	0.215283	0.028934
	H5006	H	0.523321	0.285515	0.094720
	H5007	H	0.538909	0.285314	0.091217
	H5008	H	0.523389	0.535781	0.029771
	H5009	H	0.538964	0.535481	0.033526
	H5010	H	0.539106	-0.035484	0.092770
	H5011	H	0.523501	-0.035123	0.096223
	H5012	H	0.586069	-0.036983	0.091371
	H5013	H	0.601648	-0.036602	0.095300
	H5014	H	0.585850	0.532792	0.032853
	H5015	H	0.601427	0.533251	0.029123
	Al5016	Al	0.562474	-0.501173	0.187499
	Al5017	Al	0.562501	-0.251027	0.187438
	Al5018	Al	0.499961	-0.248495	0.124797
	Al5019	Al	0.499992	-0.498571	0.124998
	O5020	O	0.571801	-0.461253	0.209605
	O5021	O	0.562490	-0.376164	0.170390
	O5022	O	0.562493	-0.125920	0.204393
	O5023	O	0.615785	-0.460860	0.227598
	O5024	O	0.553275	-0.459289	0.209899
	O5025	O	0.509285	-0.459091	0.227933
	O5026	O	0.553207	-0.291039	0.209574
	O5027	O	0.553295	-0.209058	0.164859
	O5028	O	0.509234	-0.208515	0.147043
	O5029	O	0.571665	-0.292909	0.210013
	O5030	O	0.571775	-0.211476	0.165349
	O5031	O	0.615810	-0.210929	0.147405
	O5032	O	0.509202	-0.290749	0.227529
	O5033	O	0.553156	-0.040655	0.165449
	O5034	O	0.509181	-0.040103	0.147392
	O5035	O	0.615693	-0.042782	0.147098
	O5036	O	0.571648	-0.043061	0.164776
	O5037	O	0.615703	-0.292355	0.227947
	O5038	O	0.499959	-0.123765	0.232886
	O5039	O	0.625053	-0.377197	0.141991
	C5040	C	0.598077	-0.286592	0.220167
	C5041	C	0.602655	-0.376570	0.221034
	C5042	C	0.598199	-0.466847	0.219685
	C5043	C	0.589414	-0.466929	0.217385
	C5044	C	0.584836	-0.376821	0.216416
	C5045	C	0.589291	-0.286735	0.217910
	C5046	C	0.575436	-0.376962	0.211758
	C5047	C	0.612046	-0.376516	0.225824
	C5048	C	0.549553	-0.375071	0.211825
	C5049	C	0.540144	-0.375136	0.216577
	C5050	C	0.535576	-0.285176	0.217374
	C5051	C	0.526773	-0.285177	0.219548
	C5052	C	0.522335	-0.375176	0.221055
	C5053	C	0.526905	-0.465242	0.220264
	C5054	C	0.535699	-0.465163	0.218054
	C5055	C	0.512935	-0.375019	0.225778
	C5056	C	0.549534	-0.124763	0.163225
	C5057	C	0.540123	-0.124923	0.158485
	C5058	C	0.535571	-0.034692	0.157657
	C5059	C	0.526776	-0.034688	0.155454
	C5060	C	0.522312	-0.124700	0.153926
	C5061	C	0.526875	-0.214951	0.154746
	C5062	C	0.535662	-0.214923	0.157005
	C5063	C	0.512890	-0.124588	0.149238
	C5064	C	0.575398	-0.127137	0.162934
	C5065	C	0.584808	-0.127109	0.158339
	C5066	C	0.589389	-0.216926	0.157408
	C5067	C	0.598186	-0.216871	0.155315
	C5068	C	0.602638	-0.126866	0.153887
	C5069	C	0.598070	-0.036902	0.154889
	C5070	C	0.589266	-0.036920	0.156985
	C5071	C	0.612056	-0.126903	0.149354
	H5072	H	0.601618	-0.287050	0.154693
	H5073	H	0.586020	-0.287342	0.158251
	H5074	H	0.601410	-0.216219	0.221206
	H5075	H	0.585830	-0.216427	0.217155
	H5076	H	0.562475	-0.376198	0.152098
	H5077	H	0.562347	-0.125105	0.222717
	H5078	H	0.499862	-0.123709	0.214561
	H5079	H	0.624992	-0.377089	0.160388
	H5080	H	0.539120	-0.285226	0.157539
	H5081	H	0.523528	-0.285112	0.153540
	H5082	H	0.523319	-0.214831	0.220043
	H5083	H	0.538899	-0.214873	0.216166
	H5084	H	0.523333	0.035500	0.154833
	H5085	H	0.538910	0.035545	0.158720
	H5086	H	0.539133	-0.535551	0.217379
	H5087	H	0.523576	-0.535635	0.221299
	H5088	H	0.586066	-0.537247	0.216288
	H5089	H	0.601660	-0.536685	0.220334
	H5090	H	0.585832	0.033120	0.157553
	H5091	H	0.601436	0.033053	0.154014
	Al5092	Al	0.562475	-0.001060	0.187400
	Al5093	Al	0.562493	0.249121	0.187449
	Al5094	Al	0.499983	0.251336	0.125033
	Al5095	Al	0.499974	0.001486	0.124907
	O5096	O	0.571804	0.038754	0.209477
	O5097	O	0.562496	0.123977	0.170357
	O5098	O	0.562478	0.373922	0.204477
	O5099	O	0.615784	0.039421	0.227452
	O5100	O	0.553316	0.041302	0.209968
	O5101	O	0.509252	0.041685	0.227736
	O5102	O	0.553200	0.209325	0.209383
	O5103	O	0.553311	0.290698	0.164855
	O5104	O	0.509215	0.291911	0.147404
	O5105	O	0.571636	0.207166	0.209966
	O5106	O	0.571810	0.288831	0.165427
	O5107	O	0.615844	0.289963	0.147651
	O5108	O	0.509219	0.209875	0.227769
	O5109	O	0.553170	0.459318	0.165448
	O5110	O	0.509181	0.460286	0.147535
	O5111	O	0.615681	0.458083	0.147046
	O5112	O	0.571652	0.457128	0.164839
	O5113	O	0.615680	0.207898	0.227875
	O5114	O	0.499997	0.376051	0.232857
	O5115	O	0.625010	0.122846	0.142053
	C5116	C	0.598048	0.213996	0.220161
	C5117	C	0.602635	0.123945	0.220960
	C5118	C	0.598201	0.033650	0.219464
	C5119	C	0.589404	0.033245	0.217265
	C5120	C	0.584820	0.123202	0.216373
	C5121	C	0.589256	0.213644	0.217915
	C5122	C	0.575416	0.122948	0.211783
	C5123	C	0.612041	0.123763	0.225541
	C5124	C	0.549582	0.125210	0.211778
	C5125	C	0.540167	0.125309	0.216528
	C5126	C	0.535579	0.215259	0.217312
	C5127	C	0.526793	0.215229	0.219491
	C5128	C	0.522321	0.125077	0.221038
	C5129	C	0.526894	0.035091	0.220021
	C5130	C	0.535699	0.035188	0.217895
	C5131	C	0.512925	0.125718	0.225648
	C5132	C	0.549560	0.374938	0.163093
	C5133	C	0.540141	0.375100	0.158435
	C5134	C	0.535596	0.465482	0.157582
	C5135	C	0.526786	0.465505	0.155454
	C5136	C	0.522321	0.375427	0.153916
	C5137	C	0.526878	0.285270	0.154748
	C5138	C	0.535678	0.285111	0.156900
	C5139	C	0.512885	0.375941	0.149447
	C5140	C	0.575423	0.373000	0.163132
	C5141	C	0.584813	0.373008	0.158286
	C5142	C	0.589411	0.282946	0.157551
	C5143	C	0.598212	0.283020	0.155357
	C5144	C	0.602653	0.373289	0.153875
	C5145	C	0.598047	0.463294	0.154706
	C5146	C	0.589243	0.463163	0.156831
	C5147	C	0.612059	0.374002	0.149215
	H5148	H	0.601684	0.212865	0.154781
	H5149	H	0.586089	0.212414	0.158708
	H5150	H	0.601397	0.284088	0.221244
	H5151	H	0.585812	0.283585	0.217378
	H5152	H	0.562531	0.123839	0.152031
	H5153	H	0.562417	0.373496	0.222890
	H5154	H	0.500055	0.376660	0.214575
	H5155	H	0.624964	0.123165	0.160409
	H5156	H	0.539102	0.214910	0.157487
	H5157	H	0.523511	0.215172	0.153664
	H5158	H	0.523363	0.285538	0.220103
	H5159	H	0.538941	0.285318	0.216282
	H5160	H	0.523364	0.535662	0.154969
	H5161	H	0.538964	0.535501	0.158596
	H5162	H	0.539134	-0.035086	0.217335
	H5163	H	0.523510	-0.034954	0.220994
	H5164	H	0.586048	-0.037184	0.216174
	H5165	H	0.601661	-0.036352	0.219953
	H5166	H	0.585787	0.533207	0.157434
	H5167	H	0.601380	0.533665	0.153661
	Al5168	Al	0.562449	-0.500772	0.312393
	Al5169	Al	0.562479	-0.250729	0.312461
	Al5170	Al	0.500012	-0.248864	0.249935
	Al5171	Al	0.499982	-0.498850	0.249963
	O5172	O	0.571791	-0.460971	0.334527
	O5173	O	0.562459	-0.375765	0.295416
	O5174	O	0.562491	-0.125611	0.329426
	O5175	O	0.615799	-0.460518	0.352573
	O5176	O	0.553289	-0.459035	0.335007
	O5177	O	0.509241	-0.458267	0.352475
	O5178	O	0.553214	-0.290591	0.334674
	O5179	O	0.553267	-0.208623	0.289978
	O5180	O	0.509271	-0.208336	0.272007
	O5181	O	0.571664	-0.292528	0.334976
	O5182	O	0.571784	-0.210562	0.290347
	O5183	O	0.615802	-0.210274	0.272518
	O5184	O	0.509162	-0.289922	0.352236
	O5185	O	0.553167	-0.040146	0.290332
	O5186	O	0.509146	-0.040045	0.272483
	O5187	O	0.615713	-0.042206	0.272105
	O5188	O	0.571674	-0.042409	0.290024
	O5189	O	0.615724	-0.292133	0.352907
	O5190	O	0.499998	-0.122946	0.357618
	O5191	O	0.625007	-0.377426	0.267113
	C5192	C	0.598076	-0.285910	0.345063
	C5193	C	0.602670	-0.376002	0.345975
	C5194	C	0.598226	-0.466387	0.344479
	C5195	C	0.589433	-0.466679	0.342378
	C5196	C	0.584836	-0.376512	0.341526
	C5197	C	0.589274	-0.286184	0.342957
	C5198	C	0.575413	-0.376790	0.336728
	C5199	C	0.612066	-0.376191	0.350673
	C5200	C	0.549573	-0.374724	0.336884
	C5201	C	0.540156	-0.374026	0.341460
	C5202	C	0.535589	-0.283955	0.342311
	C5203	C	0.526783	-0.284115	0.344431
	C5204	C	0.522328	-0.374164	0.345801
	C5205	C	0.526891	-0.464221	0.344731
	C5206	C	0.535694	-0.464191	0.342596
	C5207	C	0.512912	-0.374158	0.350357
	C5208	C	0.549513	-0.124246	0.288151
	C5209	C	0.540124	-0.124494	0.283438
	C5210	C	0.535569	-0.034346	0.282512
	C5211	C	0.526764	-0.033986	0.280350
	C5212	C	0.522303	-0.124139	0.278940
	C5213	C	0.526862	-0.214454	0.279766
	C5214	C	0.535659	-0.214654	0.281973
	C5215	C	0.512893	-0.124251	0.274324
	C5216	C	0.575416	-0.126338	0.288169
	C5217	C	0.584832	-0.126375	0.283519
	C5218	C	0.589412	-0.216254	0.282662
	C5219	C	0.598205	-0.215831	0.280498
	C5220	C	0.602652	-0.125836	0.278991
	C5221	C	0.598074	-0.035865	0.279764
	C5222	C	0.589286	-0.036393	0.281965
	C5223	C	0.612055	-0.126025	0.274292
	H5224	H	0.601661	-0.285815	0.280020
	H5225	H	0.586081	-0.286603	0.283716
	H5226	H	0.601405	-0.215390	0.346195
	H5227	H	0.585789	-0.216330	0.342436
	H5228	H	0.562524	-0.375800	0.277048
	H5229	H	0.562607	-0.125902	0.347740
	H5230	H	0.499891	-0.122493	0.339196
	H5231	H	0.625139	-0.377743	0.285524
	H5232	H	0.539081	-0.284907	0.282594
	H5233	H	0.523510	-0.284656	0.278758
	H5234	H	0.523346	-0.213813	0.345129
	H5235	H	0.538934	-0.213464	0.341412
	H5236	H	0.523344	0.036038	0.279765
	H5237	H	0.538933	0.035975	0.283482
	H5238	H	0.539150	-0.534370	0.341862
	H5239	H	0.523547	-0.534655	0.345644
	H5240	H	0.586098	-0.536813	0.341480
	H5241	H	0.601677	-0.536509	0.345148
	H5242	H	0.585830	0.033775	0.282523
	H5243	H	0.601396	0.034483	0.278660
	Al5244	Al	0.562446	-0.000504	0.312411
	Al5245	Al	0.562488	0.249364	0.312365
	Al5246	Al	0.499974	0.251231	0.250003
	Al5247	Al	0.499990	0.001239	0.249985
	O5248	O	0.571783	0.039097	0.334345
	O5249	O	0.562488	0.124397	0.295343
	O5250	O	0.562493	0.374364	0.329393
	O5251	O	0.615821	0.039622	0.352531
	O5252	O	0.553321	0.041510	0.335155
	O5253	O	0.509284	0.042182	0.352584
	O5254	O	0.553165	0.209893	0.334375
	O5255	O	0.553299	0.291227	0.289858
	O5256	O	0.509237	0.291219	0.272218
	O5257	O	0.571644	0.207520	0.334912
	O5258	O	0.571792	0.289401	0.290422
	O5259	O	0.615841	0.289463	0.272678
	O5260	O	0.509203	0.210844	0.352360
	O5261	O	0.553171	0.459758	0.290205
	O5262	O	0.509178	0.459422	0.272473
	O5263	O	0.615710	0.457686	0.272030
	O5264	O	0.571680	0.457851	0.290021
	O5265	O	0.615658	0.207953	0.353121
	O5266	O	0.499988	0.376871	0.357777
	O5267	O	0.624989	0.122509	0.267044
	C5268	C	0.598048	0.213674	0.345324
	C5269	C	0.602616	0.123537	0.346198
	C5270	C	0.598163	0.033424	0.344651
	C5271	C	0.589368	0.033221	0.342388
	C5272	C	0.584795	0.123318	0.341501
	C5273	C	0.589246	0.213541	0.343122
	C5274	C	0.575394	0.123310	0.336762
	C5275	C	0.612044	0.123744	0.350826
	C5276	C	0.549557	0.125667	0.336899
	C5277	C	0.540159	0.125719	0.341554
	C5278	C	0.535600	0.215973	0.342361
	C5279	C	0.526816	0.216097	0.344576
	C5280	C	0.522348	0.126028	0.345964
	C5281	C	0.526896	0.035874	0.345011
	C5282	C	0.535685	0.035659	0.342850
	C5283	C	0.512943	0.126290	0.350552
	C5284	C	0.549536	0.375354	0.288011
	C5285	C	0.540130	0.375341	0.283515
	C5286	C	0.535552	0.465261	0.282620
	C5287	C	0.526756	0.465382	0.280440
	C5288	C	0.522316	0.375179	0.278961
	C5289	C	0.526884	0.285210	0.279841
	C5290	C	0.535685	0.285213	0.282051
	C5291	C	0.512889	0.375222	0.274465
	C5292	C	0.575430	0.373534	0.288170
	C5293	C	0.584823	0.373302	0.283511
	C5294	C	0.589394	0.283281	0.282593
	C5295	C	0.598193	0.283356	0.280464
	C5296	C	0.602649	0.373428	0.278996
	C5297	C	0.598066	0.463480	0.280000
	C5298	C	0.589270	0.463516	0.282098
	C5299	C	0.612069	0.373596	0.274403
	H5300	H	0.601621	0.213084	0.279803
	H5301	H	0.586052	0.212819	0.283535
	H5302	H	0.601401	0.283689	0.346226
	H5303	H	0.585809	0.283994	0.342405
	H5304	H	0.562625	0.124384	0.277048
	H5305	H	0.562559	0.374284	0.347738
	H5306	H	0.500170	0.376441	0.339398
	H5307	H	0.625027	0.122032	0.285440
	H5308	H	0.539121	0.214569	0.282524
	H5309	H	0.523542	0.214962	0.278749
	H5310	H	0.523388	0.286388	0.345088
	H5311	H	0.538982	0.286059	0.341139
	H5312	H	0.523326	0.535401	0.279807
	H5313	H	0.538905	0.535530	0.283465
	H5314	H	0.539120	-0.034686	0.342104
	H5315	H	0.523523	-0.034218	0.345821
	H5316	H	0.586039	-0.037240	0.341126
	H5317	H	0.601627	-0.036586	0.344954
	H5318	H	0.585833	0.533669	0.282675
	H5319	H	0.601440	0.533473	0.279011
	Al5320	Al	0.562496	-0.500680	0.437414
	Al5321	Al	0.562533	-0.250809	0.437470
	Al5322	Al	0.499968	-0.247874	0.374756
	Al5323	Al	0.499989	-0.498145	0.374876
	O5324	O	0.571807	-0.461109	0.459470
	O5325	O	0.562485	-0.375792	0.420443
	O5326	O	0.562461	-0.125789	0.454574
	O5327	O	0.615794	-0.461155	0.477707
	O5328	O	0.553339	-0.459276	0.459972
	O5329	O	0.509264	-0.458203	0.477433
	O5330	O	0.553242	-0.290927	0.459725
	O5331	O	0.553268	-0.209578	0.415119
	O5332	O	0.509246	-0.208392	0.397029
	O5333	O	0.571717	-0.292851	0.459841
	O5334	O	0.571771	-0.210842	0.415316
	O5335	O	0.615810	-0.210677	0.397685
	O5336	O	0.509203	-0.289685	0.477393
	O5337	O	0.553253	-0.041076	0.415091
	O5338	O	0.509198	-0.040201	0.397159
	O5339	O	0.615671	-0.042246	0.397100
	O5340	O	0.571638	-0.042601	0.414773
	O5341	O	0.615684	-0.292812	0.478168
	O5342	O	0.500006	-0.123090	0.482686
	O5343	O	0.624998	-0.377187	0.392199
	C5344	C	0.598067	-0.286730	0.470381
	C5345	C	0.602650	-0.376830	0.471135
	C5346	C	0.598204	-0.467142	0.469546
	C5347	C	0.589416	-0.467240	0.467268
	C5348	C	0.584843	-0.377252	0.466383
	C5349	C	0.589269	-0.286819	0.468062
	C5350	C	0.575443	-0.377078	0.461652
	C5351	C	0.612055	-0.376985	0.475907
	C5352	C	0.549592	-0.375010	0.461869
	C5353	C	0.540166	-0.374825	0.466496
	C5354	C	0.535623	-0.284517	0.467562
	C5355	C	0.526816	-0.284495	0.469663
	C5356	C	0.522358	-0.374494	0.470974
	C5357	C	0.526903	-0.464746	0.469958
	C5358	C	0.535699	-0.464878	0.467806
	C5359	C	0.512941	-0.373964	0.475453
	C5360	C	0.549557	-0.125216	0.413121
	C5361	C	0.540160	-0.124912	0.408321
	C5362	C	0.535591	-0.034862	0.407349
	C5363	C	0.526794	-0.034821	0.405124
	C5364	C	0.522326	-0.124861	0.403818
	C5365	C	0.526889	-0.215039	0.404957
	C5366	C	0.535694	-0.214989	0.407147
	C5367	C	0.512921	-0.124421	0.399165
	C5368	C	0.575410	-0.126781	0.413015
	C5369	C	0.584824	-0.126855	0.408436
	C5370	C	0.589410	-0.216969	0.407713
	C5371	C	0.598210	-0.216832	0.405619
	C5372	C	0.602656	-0.126592	0.404039
	C5373	C	0.598077	-0.036593	0.404869
	C5374	C	0.589274	-0.036708	0.406953
	C5375	C	0.612048	-0.126645	0.399353
	H5376	H	0.601653	-0.287243	0.405188
	H5377	H	0.586056	-0.287396	0.408824
	H5378	H	0.601414	-0.216411	0.471529
	H5379	H	0.585822	-0.216628	0.467507
	H5380	H	0.562386	-0.375780	0.402081
	H5381	H	0.562338	-0.125585	0.472929
	H5382	H	0.499996	-0.122946	0.464272
	H5383	H	0.624975	-0.378114	0.410606
	H5384	H	0.539135	-0.285162	0.407877
	H5385	H	0.523530	-0.285227	0.404013
	H5386	H	0.523413	-0.214196	0.470298
	H5387	H	0.538980	-0.214297	0.466716
	H5388	H	0.523361	0.035317	0.404340
	H5389	H	0.538942	0.035468	0.408242
	H5390	H	0.539105	-0.535184	0.467168
	H5391	H	0.523543	-0.535040	0.470845
	H5392	H	0.586068	-0.537473	0.466178
	H5393	H	0.601652	-0.537345	0.470145
	H5394	H	0.585848	0.033796	0.407465
	H5395	H	0.601431	0.033643	0.403838
	Al5396	Al	0.562487	-0.000744	0.437456
	Al5397	Al	0.562510	0.249344	0.437352
	Al5398	Al	0.499973	0.251860	0.374840
	Al5399	Al	0.500007	0.001655	0.374807
	O5400	O	0.571751	0.039111	0.459648
	O5401	O	0.562464	0.123872	0.420432
	O5402	O	0.562506	0.374023	0.454355
	O5403	O	0.615787	0.038614	0.477616
	O5404	O	0.553283	0.040665	0.459871
	O5405	O	0.509257	0.041784	0.477522
	O5406	O	0.553209	0.208911	0.459532
	O5407	O	0.553293	0.290804	0.415022
	O5408	O	0.509261	0.292031	0.397089
	O5409	O	0.571701	0.207399	0.459889
	O5410	O	0.571767	0.288939	0.415249
	O5411	O	0.615836	0.289645	0.397573
	O5412	O	0.509163	0.210038	0.477397
	O5413	O	0.553204	0.459096	0.415297
	O5414	O	0.509178	0.460432	0.397304
	O5415	O	0.615714	0.457900	0.397376
	O5416	O	0.571696	0.457545	0.414867
	O5417	O	0.615690	0.206920	0.478067
	O5418	O	0.500008	0.376724	0.482767
	O5419	O	0.625041	0.122504	0.392090
	C5420	C	0.598084	0.212973	0.470125
	C5421	C	0.602656	0.122824	0.471004
	C5422	C	0.598204	0.032836	0.469515
	C5423	C	0.589410	0.033042	0.467321
	C5424	C	0.584830	0.123042	0.466581
	C5425	C	0.589289	0.213196	0.468034
	C5426	C	0.575429	0.123264	0.461783
	C5427	C	0.612044	0.122748	0.475786
	C5428	C	0.549549	0.125067	0.461760
	C5429	C	0.540151	0.125067	0.466376
	C5430	C	0.535613	0.215274	0.467577
	C5431	C	0.526814	0.215652	0.469675
	C5432	C	0.522321	0.125828	0.470831
	C5433	C	0.526869	0.035610	0.469783
	C5434	C	0.535676	0.035173	0.467663
	C5435	C	0.512919	0.125965	0.475464
	C5436	C	0.549559	0.374991	0.413051
	C5437	C	0.540162	0.375368	0.408367
	C5438	C	0.535618	0.465546	0.407234
	C5439	C	0.526818	0.465471	0.405097
	C5440	C	0.522337	0.375655	0.403905
	C5441	C	0.526886	0.285527	0.405014
	C5442	C	0.535695	0.285331	0.407131
	C5443	C	0.512918	0.376212	0.399224
	C5444	C	0.575415	0.373068	0.413050
	C5445	C	0.584838	0.373074	0.408528
	C5446	C	0.589423	0.282985	0.407872
	C5447	C	0.598228	0.283024	0.405758
	C5448	C	0.602649	0.373242	0.404024
	C5449	C	0.598058	0.463378	0.404736
	C5450	C	0.589262	0.463367	0.406799
	C5451	C	0.612065	0.373676	0.399489
	H5452	H	0.601712	0.212896	0.405426
	H5453	H	0.586092	0.212750	0.409030
	H5454	H	0.601423	0.283180	0.471117
	H5455	H	0.585829	0.283432	0.467426
	H5456	H	0.562477	0.123582	0.402061
	H5457	H	0.562427	0.374010	0.472688
	H5458	H	0.499934	0.376767	0.464399
	H5459	H	0.625032	0.122813	0.410379
	H5460	H	0.539120	0.215131	0.407983
	H5461	H	0.523513	0.215410	0.404318
	H5462	H	0.523400	0.285955	0.470277
	H5463	H	0.538969	0.285496	0.466668
	H5464	H	0.523400	0.535885	0.404418
	H5465	H	0.538960	0.535728	0.408134
	H5466	H	0.539070	-0.035063	0.466812
	H5467	H	0.523493	-0.034381	0.470515
	H5468	H	0.586066	-0.037192	0.466215
	H5469	H	0.601641	-0.037547	0.470055
	H5470	H	0.585792	0.533464	0.407153
	H5471	H	0.601377	0.533864	0.403691
	Al5472	Al	0.562488	-0.500690	0.562392
	Al5473	Al	0.562504	-0.250634	0.562437
	Al5474	Al	0.499987	-0.248012	0.499765
	Al5475	Al	0.500015	-0.498171	0.499784
	O5476	O	0.571788	-0.460517	0.584535
	O5477	O	0.562537	-0.375510	0.545432
	O5478	O	0.562485	-0.125383	0.579443
	O5479	O	0.615806	-0.461241	0.602473
	O5480	O	0.553295	-0.458793	0.584779
	O5481	O	0.509239	-0.458063	0.602688
	O5482	O	0.553232	-0.290473	0.584689
	O5483	O	0.553275	-0.208916	0.540022
	O5484	O	0.509261	-0.208071	0.521985
	O5485	O	0.571669	-0.292229	0.584988
	O5486	O	0.571721	-0.210328	0.540175
	O5487	O	0.615817	-0.210948	0.522596
	O5488	O	0.509162	-0.289816	0.602431
	O5489	O	0.553204	-0.040403	0.540259
	O5490	O	0.509185	-0.039829	0.522282
	O5491	O	0.615702	-0.042299	0.522328
	O5492	O	0.571678	-0.042039	0.539848
	O5493	O	0.615739	-0.292990	0.602750
	O5494	O	0.500016	-0.123313	0.608035
	O5495	O	0.625037	-0.377966	0.517132
	C5496	C	0.598087	-0.286207	0.595060
	C5497	C	0.602648	-0.376381	0.595929
	C5498	C	0.598166	-0.466366	0.594630
	C5499	C	0.589371	-0.466410	0.592477
	C5500	C	0.584824	-0.376282	0.591422
	C5501	C	0.589292	-0.286207	0.592937
	C5502	C	0.575411	-0.376292	0.586728
	C5503	C	0.612072	-0.377001	0.600594
	C5504	C	0.549576	-0.374549	0.586707
	C5505	C	0.540154	-0.374185	0.591410
	C5506	C	0.535585	-0.284128	0.592344
	C5507	C	0.526797	-0.283832	0.594499
	C5508	C	0.522318	-0.373836	0.595883
	C5509	C	0.526885	-0.463875	0.594894
	C5510	C	0.535680	-0.464235	0.592786
	C5511	C	0.512886	-0.374038	0.600536
	C5512	C	0.549549	-0.124519	0.538163
	C5513	C	0.540144	-0.124400	0.533406
	C5514	C	0.535581	-0.034247	0.532328
	C5515	C	0.526784	-0.034229	0.530143
	C5516	C	0.522322	-0.124265	0.528916
	C5517	C	0.526880	-0.214526	0.529991
	C5518	C	0.535688	-0.214490	0.532143
	C5519	C	0.512928	-0.124227	0.524140
	C5520	C	0.575403	-0.126361	0.537947
	C5521	C	0.584829	-0.126627	0.533476
	C5522	C	0.589386	-0.216874	0.532627
	C5523	C	0.598187	-0.217051	0.530578
	C5524	C	0.602655	-0.126884	0.529067
	C5525	C	0.598103	-0.036726	0.529998
	C5526	C	0.589309	-0.036641	0.532036
	C5527	C	0.612066	-0.126669	0.524491
	H5528	H	0.601632	-0.287378	0.530090
	H5529	H	0.586004	-0.286950	0.533560
	H5530	H	0.601431	-0.215828	0.596086
	H5531	H	0.585840	-0.215931	0.592390
	H5532	H	0.562582	-0.375704	0.527049
	H5533	H	0.562383	-0.125859	0.597742
	H5534	H	0.500019	-0.123175	0.589752
	H5535	H	0.625025	-0.378488	0.535459
	H5536	H	0.539133	-0.284851	0.532877
	H5537	H	0.523510	-0.284748	0.529074
	H5538	H	0.523360	-0.213595	0.595175
	H5539	H	0.538923	-0.213996	0.591363
	H5540	H	0.523346	0.036107	0.529451
	H5541	H	0.538922	0.036150	0.533269
	H5542	H	0.539130	-0.534439	0.592150
	H5543	H	0.523505	-0.533918	0.595887
	H5544	H	0.586015	-0.536878	0.591593
	H5545	H	0.601608	-0.536478	0.595364
	H5546	H	0.585890	0.033799	0.532499
	H5547	H	0.601460	0.033267	0.529059
	Al5548	Al	0.562489	-0.000434	0.562459
	Al5549	Al	0.562517	0.249360	0.562462
	Al5550	Al	0.500010	0.251808	0.499901
	Al5551	Al	0.499983	0.001732	0.499776
	O5552	O	0.571774	0.039399	0.584588
	O5553	O	0.562526	0.124570	0.545400
	O5554	O	0.562549	0.374611	0.579488
	O5555	O	0.615801	0.039078	0.602446
	O5556	O	0.553277	0.041001	0.584905
	O5557	O	0.509246	0.042072	0.602685
	O5558	O	0.553221	0.209412	0.584598
	O5559	O	0.553287	0.290933	0.540016
	O5560	O	0.509301	0.291845	0.521902
	O5561	O	0.571689	0.207857	0.585136
	O5562	O	0.571844	0.289023	0.540421
	O5563	O	0.615789	0.288536	0.522519
	O5564	O	0.509157	0.210519	0.602565
	O5565	O	0.553245	0.459415	0.540144
	O5566	O	0.509210	0.459935	0.522297
	O5567	O	0.615694	0.457027	0.522128
	O5568	O	0.571662	0.457465	0.539746
	O5569	O	0.615698	0.207817	0.602990
	O5570	O	0.499979	0.377204	0.608052
	O5571	O	0.625059	0.122064	0.517046
	C5572	C	0.598101	0.213912	0.595171
	C5573	C	0.602666	0.123694	0.596043
	C5574	C	0.598214	0.033425	0.594539
	C5575	C	0.589424	0.033295	0.592376
	C5576	C	0.584852	0.123505	0.591469
	C5577	C	0.589302	0.213869	0.593010
	C5578	C	0.575426	0.123569	0.586864
	C5579	C	0.612068	0.123553	0.600708
	C5580	C	0.549543	0.125434	0.586762
	C5581	C	0.540139	0.125836	0.591434
	C5582	C	0.535575	0.216023	0.592335
	C5583	C	0.526757	0.216050	0.594473
	C5584	C	0.522299	0.125916	0.595923
	C5585	C	0.526861	0.035819	0.595046
	C5586	C	0.535657	0.035887	0.592889
	C5587	C	0.512911	0.126149	0.600669
	C5588	C	0.549577	0.375186	0.538004
	C5589	C	0.540182	0.375804	0.533299
	C5590	C	0.535623	0.466094	0.532344
	C5591	C	0.526820	0.465943	0.530147
	C5592	C	0.522360	0.375743	0.528708
	C5593	C	0.526918	0.285666	0.529896
	C5594	C	0.535715	0.285730	0.532076
	C5595	C	0.512945	0.375883	0.524186
	C5596	C	0.575452	0.373268	0.538096
	C5597	C	0.584845	0.373508	0.533481
	C5598	C	0.589404	0.283211	0.532566
	C5599	C	0.598204	0.282960	0.530400
	C5600	C	0.602667	0.373075	0.528993
	C5601	C	0.598108	0.463390	0.530066
	C5602	C	0.589309	0.463471	0.532278
	C5603	C	0.612057	0.372860	0.524307
	H5604	H	0.601629	0.212939	0.529722
	H5605	H	0.586052	0.212612	0.533407
	H5606	H	0.601461	0.283992	0.596250
	H5607	H	0.585845	0.284034	0.592534
	H5608	H	0.562505	0.124730	0.527005
	H5609	H	0.562703	0.374638	0.597884
	H5610	H	0.499869	0.376988	0.589682
	H5611	H	0.624966	0.122019	0.535385
	H5612	H	0.539143	0.215547	0.532660
	H5613	H	0.523599	0.215302	0.528892
	H5614	H	0.523331	0.285948	0.594916
	H5615	H	0.538933	0.286147	0.591220
	H5616	H	0.523371	0.536193	0.529272
	H5617	H	0.538984	0.536412	0.533104
	H5618	H	0.539078	-0.034473	0.592166
	H5619	H	0.523505	-0.034436	0.595909
	H5620	H	0.586051	-0.036713	0.591403
	H5621	H	0.601646	-0.036829	0.595114
	H5622	H	0.585861	0.533641	0.532972
	H5623	H	0.601474	0.533634	0.529121
	Al5624	Al	0.562504	-0.500612	0.687445
	Al5625	Al	0.562473	-0.250872	0.687492
	Al5626	Al	0.499987	-0.248209	0.625116
	Al5627	Al	0.499984	-0.498197	0.625136
	O5628	O	0.571782	-0.460834	0.709540
	O5629	O	0.562491	-0.375799	0.670350
	O5630	O	0.562527	-0.126010	0.704576
	O5631	O	0.615771	-0.461188	0.727636
	O5632	O	0.553277	-0.459252	0.709907
	O5633	O	0.509256	-0.458573	0.727874
	O5634	O	0.553172	-0.291198	0.709654
	O5635	O	0.553309	-0.209254	0.664906
	O5636	O	0.509272	-0.208003	0.647185
	O5637	O	0.571697	-0.292609	0.709827
	O5638	O	0.571770	-0.210386	0.665462
	O5639	O	0.615795	-0.211193	0.647409
	O5640	O	0.509190	-0.290220	0.727603
	O5641	O	0.553247	-0.040777	0.665224
	O5642	O	0.509236	-0.039690	0.647330
	O5643	O	0.615691	-0.042561	0.646873
	O5644	O	0.571692	-0.041970	0.665130
	O5645	O	0.615675	-0.293036	0.727987
	O5646	O	0.500046	-0.123564	0.733096
	O5647	O	0.625005	-0.377938	0.642027
	C5648	C	0.598077	-0.286884	0.720114
	C5649	C	0.602628	-0.377136	0.721221
	C5650	C	0.598182	-0.467199	0.719647
	C5651	C	0.589393	-0.467132	0.717409
	C5652	C	0.584833	-0.376909	0.716505
	C5653	C	0.589287	-0.286828	0.717886
	C5654	C	0.575427	-0.376682	0.711691
	C5655	C	0.612041	-0.377072	0.725848
	C5656	C	0.549546	-0.375151	0.711872
	C5657	C	0.540152	-0.375126	0.716545
	C5658	C	0.535597	-0.284868	0.717384
	C5659	C	0.526796	-0.284863	0.719527
	C5660	C	0.522322	-0.374850	0.721112
	C5661	C	0.526885	-0.465077	0.720135
	C5662	C	0.535685	-0.465250	0.718016
	C5663	C	0.512937	-0.374371	0.725760
	C5664	C	0.549582	-0.124825	0.663032
	C5665	C	0.540181	-0.124810	0.658412
	C5666	C	0.535624	-0.034684	0.657527
	C5667	C	0.526828	-0.034492	0.655462
	C5668	C	0.522360	-0.124472	0.654026
	C5669	C	0.526903	-0.214776	0.655081
	C5670	C	0.535702	-0.214905	0.657132
	C5671	C	0.512948	-0.124069	0.649289
	C5672	C	0.575442	-0.126166	0.663290
	C5673	C	0.584849	-0.126422	0.658550
	C5674	C	0.589393	-0.216595	0.657657
	C5675	C	0.598201	-0.216863	0.655440
	C5676	C	0.602670	-0.126816	0.653950
	C5677	C	0.598112	-0.036668	0.654830
	C5678	C	0.589319	-0.036428	0.657069
	C5679	C	0.612054	-0.126792	0.649102
	H5680	H	0.601636	-0.287195	0.654880
	H5681	H	0.586042	-0.286806	0.658834
	H5682	H	0.601405	-0.216496	0.721177
	H5683	H	0.585818	-0.216936	0.717248
	H5684	H	0.562511	-0.375265	0.651955
	H5685	H	0.562600	-0.126078	0.722975
	H5686	H	0.500154	-0.123415	0.714780
	H5687	H	0.624949	-0.378104	0.660343
	H5688	H	0.539129	-0.285180	0.657709
	H5689	H	0.523525	-0.284774	0.654103
	H5690	H	0.523370	-0.214563	0.719939
	H5691	H	0.538964	-0.214656	0.716226
	H5692	H	0.523407	0.035862	0.654851
	H5693	H	0.538981	0.035359	0.658487
	H5694	H	0.539127	-0.535338	0.717330
	H5695	H	0.523531	-0.535230	0.721006
	H5696	H	0.586055	-0.537379	0.716426
	H5697	H	0.601643	-0.537294	0.720299
	H5698	H	0.585887	0.033939	0.657824
	H5699	H	0.601463	0.033470	0.653835
	Al5700	Al	0.562490	-0.001027	0.687545
	Al5701	Al	0.562468	0.249375	0.687576
	Al5702	Al	0.499993	0.252077	0.625107
	Al5703	Al	0.500020	0.002094	0.624988
	O5704	O	0.571757	0.039452	0.709868
	O5705	O	0.562501	0.124133	0.670593
	O5706	O	0.562535	0.374493	0.704554
	O5707	O	0.615868	0.038914	0.727524
	O5708	O	0.553295	0.040072	0.710019
	O5709	O	0.509319	0.040972	0.727929
	O5710	O	0.553241	0.208534	0.709721
	O5711	O	0.553298	0.291140	0.665047
	O5712	O	0.509260	0.292255	0.647228
	O5713	O	0.571728	0.207933	0.709939
	O5714	O	0.571757	0.289842	0.665377
	O5715	O	0.615838	0.289322	0.647551
	O5716	O	0.509203	0.209247	0.727542
	O5717	O	0.553239	0.459422	0.665146
	O5718	O	0.509223	0.460669	0.647422
	O5719	O	0.615707	0.457630	0.647070
	O5720	O	0.571717	0.458262	0.665124
	O5721	O	0.615732	0.207245	0.727921
	O5722	O	0.500029	0.375939	0.732910
	O5723	O	0.624989	0.122063	0.642023
	C5724	C	0.598119	0.213213	0.719971
	C5725	C	0.602687	0.123085	0.720959
	C5726	C	0.598215	0.032877	0.719594
	C5727	C	0.589406	0.032819	0.717449
	C5728	C	0.584843	0.123056	0.716442
	C5729	C	0.589312	0.213345	0.717858
	C5730	C	0.575445	0.123452	0.711927
	C5731	C	0.612093	0.123009	0.725742
	C5732	C	0.549580	0.124483	0.711927
	C5733	C	0.540172	0.124929	0.716588
	C5734	C	0.535618	0.215132	0.717584
	C5735	C	0.526818	0.215104	0.719690
	C5736	C	0.522364	0.124995	0.721063
	C5737	C	0.526903	0.034834	0.719989
	C5738	C	0.535700	0.034935	0.717867
	C5739	C	0.512955	0.125049	0.725778
	C5740	C	0.549564	0.375228	0.663066
	C5741	C	0.540161	0.375458	0.658480
	C5742	C	0.535616	0.465550	0.657566
	C5743	C	0.526810	0.465797	0.655484
	C5744	C	0.522346	0.375904	0.653999
	C5745	C	0.526901	0.285677	0.654971
	C5746	C	0.535697	0.285372	0.657103
	C5747	C	0.512942	0.376425	0.649363
	C5748	C	0.575426	0.373708	0.663206
	C5749	C	0.584831	0.373478	0.658520
	C5750	C	0.589401	0.283386	0.657654
	C5751	C	0.598194	0.283306	0.655516
	C5752	C	0.602661	0.373456	0.653926
	C5753	C	0.598101	0.463563	0.654778
	C5754	C	0.589299	0.463603	0.656959
	C5755	C	0.612071	0.373266	0.649377
	H5756	H	0.601624	0.213039	0.654964
	H5757	H	0.586034	0.213325	0.658615
	H5758	H	0.601503	0.283253	0.720766
	H5759	H	0.585899	0.284072	0.717176
	H5760	H	0.562554	0.123901	0.652187
	H5761	H	0.562646	0.374021	0.722895
	H5762	H	0.499939	0.376451	0.714589
	H5763	H	0.625004	0.121990	0.660391
	H5764	H	0.539125	0.215167	0.657663
	H5765	H	0.523533	0.215610	0.654004
	H5766	H	0.523396	0.285278	0.720473
	H5767	H	0.538964	0.285179	0.716655
	H5768	H	0.523390	0.536235	0.654900
	H5769	H	0.538970	0.535642	0.658467
	H5770	H	0.539137	-0.035748	0.717233
	H5771	H	0.523552	-0.035623	0.720946
	H5772	H	0.586012	-0.037328	0.716380
	H5773	H	0.601633	-0.037692	0.720061
	H5774	H	0.585848	0.533752	0.657380
	H5775	H	0.601463	0.533816	0.653635
	Al5776	Al	0.562502	-0.501472	0.812772
	Al5777	Al	0.562512	-0.251334	0.812602
	Al5778	Al	0.499987	-0.248268	0.750120
	Al5779	Al	0.500018	-0.498654	0.750034
	O5780	O	0.571798	-0.461543	0.834728
	O5781	O	0.562489	-0.376605	0.795526
	O5782	O	0.562495	-0.126237	0.829667
	O5783	O	0.615832	-0.461205	0.852580
	O5784	O	0.553308	-0.459124	0.835169
	O5785	O	0.509265	-0.458520	0.852697
	O5786	O	0.553223	-0.290951	0.834681
	O5787	O	0.553330	-0.209719	0.790005
	O5788	O	0.509277	-0.208124	0.772373
	O5789	O	0.571712	-0.293346	0.835017
	O5790	O	0.571796	-0.211368	0.790560
	O5791	O	0.615851	-0.210819	0.772560
	O5792	O	0.509211	-0.290472	0.852660
	O5793	O	0.553248	-0.041172	0.790264
	O5794	O	0.509247	-0.039985	0.772671
	O5795	O	0.615717	-0.042530	0.772106
	O5796	O	0.571730	-0.043091	0.790341
	O5797	O	0.615711	-0.292905	0.852853
	O5798	O	0.499998	-0.123625	0.858167
	O5799	O	0.624992	-0.377746	0.767157
	C5800	C	0.598100	-0.287168	0.845050
	C5801	C	0.602664	-0.377324	0.846081
	C5802	C	0.598206	-0.467303	0.844858
	C5803	C	0.589406	-0.467634	0.842718
	C5804	C	0.584846	-0.377511	0.841630
	C5805	C	0.589301	-0.287526	0.842886
	C5806	C	0.575451	-0.377343	0.836956
	C5807	C	0.612075	-0.377197	0.850726
	C5808	C	0.549571	-0.374809	0.836985
	C5809	C	0.540161	-0.374770	0.841447
	C5810	C	0.535600	-0.284685	0.842515
	C5811	C	0.526802	-0.284477	0.844718
	C5812	C	0.522343	-0.374433	0.846043
	C5813	C	0.526916	-0.464541	0.845052
	C5814	C	0.535703	-0.464788	0.842947
	C5815	C	0.512929	-0.374492	0.850657
	C5816	C	0.549582	-0.125394	0.788125
	C5817	C	0.540187	-0.125117	0.783371
	C5818	C	0.535635	-0.034979	0.782521
	C5819	C	0.526848	-0.034675	0.780466
	C5820	C	0.522370	-0.124716	0.779071
	C5821	C	0.526908	-0.214884	0.779848
	C5822	C	0.535698	-0.215042	0.781929
	C5823	C	0.512960	-0.124203	0.774546
	C5824	C	0.575445	-0.127335	0.788413
	C5825	C	0.584859	-0.127133	0.783703
	C5826	C	0.589448	-0.217082	0.782735
	C5827	C	0.598238	-0.216927	0.780491
	C5828	C	0.602678	-0.126701	0.779061
	C5829	C	0.598091	-0.036739	0.780128
	C5830	C	0.589306	-0.036981	0.782348
	C5831	C	0.612091	-0.126695	0.774377
	H5832	H	0.601673	-0.287077	0.779804
	H5833	H	0.586092	-0.287399	0.783665
	H5834	H	0.601427	-0.216797	0.845795
	H5835	H	0.585836	-0.217376	0.842004
	H5836	H	0.562512	-0.376675	0.777228
	H5837	H	0.562463	-0.126018	0.848019
	H5838	H	0.500057	-0.123686	0.839736
	H5839	H	0.625101	-0.377436	0.785559
	H5840	H	0.539118	-0.285413	0.782447
	H5841	H	0.523540	-0.285062	0.778690
	H5842	H	0.523369	-0.214325	0.845244
	H5843	H	0.538967	-0.214586	0.841563
	H5844	H	0.523411	0.035562	0.779773
	H5845	H	0.539008	0.035139	0.783492
	H5846	H	0.539126	-0.535260	0.842238
	H5847	H	0.523526	-0.534940	0.845820
	H5848	H	0.586088	-0.538345	0.841757
	H5849	H	0.601668	-0.537547	0.845470
	H5850	H	0.585877	0.033198	0.783010
	H5851	H	0.601435	0.033510	0.779138
	Al5852	Al	0.562499	-0.001212	0.812618
	Al5853	Al	0.562477	0.248477	0.812694
	Al5854	Al	0.500006	0.251259	0.749908
	Al5855	Al	0.500002	0.001394	0.750163
	O5856	O	0.571749	0.038555	0.835028
	O5857	O	0.562461	0.123539	0.795553
	O5858	O	0.562484	0.373475	0.829758
	O5859	O	0.615789	0.038216	0.852677
	O5860	O	0.553245	0.040196	0.835021
	O5861	O	0.509255	0.041102	0.852828
	O5862	O	0.553199	0.208568	0.834915
	O5863	O	0.553271	0.290268	0.790196
	O5864	O	0.509265	0.291350	0.772188
	O5865	O	0.571692	0.206877	0.835001
	O5866	O	0.571773	0.288375	0.790598
	O5867	O	0.615790	0.288450	0.772621
	O5868	O	0.509184	0.209530	0.852586
	O5869	O	0.553192	0.458465	0.790728
	O5870	O	0.509201	0.459576	0.772523
	O5871	O	0.615716	0.456721	0.772285
	O5872	O	0.571674	0.456556	0.790082
	O5873	O	0.615738	0.206517	0.852834
	O5874	O	0.500006	0.376359	0.857992
	O5875	O	0.625038	0.122316	0.767102
	C5876	C	0.598124	0.212845	0.844936
	C5877	C	0.602662	0.122603	0.846103
	C5878	C	0.598188	0.032508	0.844967
	C5879	C	0.589381	0.032349	0.842902
	C5880	C	0.584836	0.122558	0.841684
	C5881	C	0.589314	0.212654	0.842827
	C5882	C	0.575413	0.122612	0.837093
	C5883	C	0.612091	0.122623	0.850655
	C5884	C	0.549528	0.124519	0.836909
	C5885	C	0.540127	0.124831	0.841592
	C5886	C	0.535568	0.215054	0.842439
	C5887	C	0.526766	0.215218	0.844595
	C5888	C	0.522296	0.125044	0.846031
	C5889	C	0.526858	0.034897	0.845267
	C5890	C	0.535655	0.034741	0.843112
	C5891	C	0.512920	0.125240	0.850797
	C5892	C	0.549546	0.374474	0.788438
	C5893	C	0.540152	0.374671	0.783662
	C5894	C	0.535602	0.464877	0.782636
	C5895	C	0.526819	0.464936	0.780498
	C5896	C	0.522334	0.374913	0.779095
	C5897	C	0.526892	0.284777	0.779993
	C5898	C	0.535687	0.284700	0.782145
	C5899	C	0.512920	0.375328	0.774483
	C5900	C	0.575425	0.372343	0.788349
	C5901	C	0.584826	0.372600	0.783608
	C5902	C	0.589400	0.282481	0.782642
	C5903	C	0.598201	0.282550	0.780417
	C5904	C	0.602643	0.372743	0.779041
	C5905	C	0.598079	0.462817	0.780178
	C5906	C	0.589269	0.462728	0.782335
	C5907	C	0.612048	0.372681	0.774457
	H5908	H	0.601658	0.212320	0.779605
	H5909	H	0.586069	0.212038	0.783472
	H5910	H	0.601500	0.282707	0.845669
	H5911	H	0.585910	0.282983	0.842086
	H5912	H	0.562399	0.124332	0.777191
	H5913	H	0.562480	0.373365	0.848073
	H5914	H	0.500051	0.376125	0.839652
	H5915	H	0.625128	0.121943	0.785485
	H5916	H	0.539126	0.214613	0.782601
	H5917	H	0.523524	0.214514	0.778874
	H5918	H	0.523328	0.285526	0.845150
	H5919	H	0.538925	0.285104	0.841283
	H5920	H	0.523395	0.535124	0.779723
	H5921	H	0.538958	0.534930	0.783445
	H5922	H	0.539091	-0.035327	0.842545
	H5923	H	0.523500	-0.035242	0.846410
	H5924	H	0.585997	-0.037689	0.842184
	H5925	H	0.601589	-0.038053	0.845697
	H5926	H	0.585810	0.532882	0.782953
	H5927	H	0.601405	0.533264	0.779256
	Al5928	Al	0.562497	-0.501386	0.937741
	Al5929	Al	0.562506	-0.251463	0.937524
	Al5930	Al	0.499978	-0.248855	0.875136
	Al5931	Al	0.500011	-0.498556	0.874981
	O5932	O	0.571784	-0.461802	0.959897
	O5933	O	0.562511	-0.376512	0.920576
	O5934	O	0.562442	-0.126357	0.954687
	O5935	O	0.615791	-0.460939	0.977525
	O5936	O	0.553315	-0.459171	0.960226
	O5937	O	0.509225	-0.457995	0.977743
	O5938	O	0.553194	-0.290998	0.959792
	O5939	O	0.553353	-0.209468	0.914799
	O5940	O	0.509299	-0.208753	0.897166
	O5941	O	0.571657	-0.293481	0.960114
	O5942	O	0.571821	-0.211786	0.915669
	O5943	O	0.615800	-0.211634	0.897454
	O5944	O	0.509189	-0.289660	0.977527
	O5945	O	0.553208	-0.040975	0.915491
	O5946	O	0.509206	-0.040363	0.897581
	O5947	O	0.615694	-0.043261	0.897132
	O5948	O	0.571677	-0.043409	0.915174
	O5949	O	0.615666	-0.292520	0.977776
	O5950	O	0.499946	-0.123185	0.982942
	O5951	O	0.625001	-0.377978	0.892088
	C5952	C	0.598054	-0.287123	0.969971
	C5953	C	0.602625	-0.377133	0.970994
	C5954	C	0.598188	-0.467391	0.969723
	C5955	C	0.589388	-0.467383	0.967604
	C5956	C	0.584811	-0.377298	0.966664
	C5957	C	0.589256	-0.287122	0.967832
	C5958	C	0.575409	-0.377492	0.961985
	C5959	C	0.612040	-0.376790	0.975662
	C5960	C	0.549568	-0.375010	0.961980
	C5961	C	0.540141	-0.374913	0.966669
	C5962	C	0.535609	-0.284618	0.967417
	C5963	C	0.526787	-0.284375	0.969507
	C5964	C	0.522307	-0.374339	0.970962
	C5965	C	0.526861	-0.464491	0.970323
	C5966	C	0.535668	-0.464767	0.968273
	C5967	C	0.512898	-0.374046	0.975635
	C5968	C	0.549573	-0.125144	0.913185
	C5969	C	0.540170	-0.124908	0.908579
	C5970	C	0.535594	-0.034611	0.907627
	C5971	C	0.526803	-0.034700	0.905635
	C5972	C	0.522335	-0.124858	0.904261
	C5973	C	0.526922	-0.214976	0.904966
	C5974	C	0.535720	-0.215137	0.907053
	C5975	C	0.512938	-0.124628	0.899518
	C5976	C	0.575432	-0.127470	0.913334
	C5977	C	0.584837	-0.127168	0.908610
	C5978	C	0.589398	-0.217202	0.907460
	C5979	C	0.598200	-0.217015	0.905226
	C5980	C	0.602648	-0.126886	0.903985
	C5981	C	0.598091	-0.036794	0.905243
	C5982	C	0.589289	-0.036901	0.907462
	C5983	C	0.612061	-0.127382	0.899268
	H5984	H	0.601646	-0.287254	0.904492
	H5985	H	0.586038	-0.287347	0.908384
	H5986	H	0.601404	-0.216529	0.970809
	H5987	H	0.585840	-0.216813	0.967072
	H5988	H	0.562653	-0.376262	0.902162
	H5989	H	0.562352	-0.126902	0.973043
	H5990	H	0.499876	-0.123253	0.964557
	H5991	H	0.624893	-0.378097	0.910405
	H5992	H	0.539164	-0.285376	0.907650
	H5993	H	0.523552	-0.285210	0.903868
	H5994	H	0.523376	-0.214070	0.969968
	H5995	H	0.538996	-0.214513	0.966304
	H5996	H	0.523347	0.035789	0.905091
	H5997	H	0.538934	0.035480	0.908583
	H5998	H	0.539059	-0.535340	0.967818
	H5999	H	0.523505	-0.534495	0.971469
	H6000	H	0.586037	-0.537563	0.966709
	H6001	H	0.601643	-0.537667	0.970400
	H6002	H	0.585878	0.033539	0.908354
	H6003	H	0.601450	0.033419	0.904495
	Al6004	Al	0.562505	-0.001261	0.937738
	Al6005	Al	0.562494	0.248777	0.937580
	Al6006	Al	0.500004	0.251320	0.874998
	Al6007	Al	0.499980	0.001152	0.875052
	O6008	O	0.571788	0.038527	0.959847
	O6009	O	0.562534	0.123603	0.920605
	O6010	O	0.562448	0.373665	0.954721
	O6011	O	0.615864	0.038973	0.977333
	O6012	O	0.553308	0.040294	0.960057
	O6013	O	0.509302	0.041784	0.977791
	O6014	O	0.553238	0.208713	0.959708
	O6015	O	0.553293	0.290617	0.915038
	O6016	O	0.509317	0.291678	0.897117
	O6017	O	0.571713	0.207141	0.960179
	O6018	O	0.571790	0.288568	0.915638
	O6019	O	0.615774	0.288178	0.897401
	O6020	O	0.509205	0.210304	0.977597
	O6021	O	0.553246	0.459056	0.915477
	O6022	O	0.509211	0.459921	0.897522
	O6023	O	0.615695	0.456664	0.897129
	O6024	O	0.571661	0.456894	0.915155
	O6025	O	0.615714	0.207317	0.977744
	O6026	O	0.499974	0.376561	0.983078
	O6027	O	0.624994	0.121941	0.892061
	C6028	C	0.598115	0.212829	0.969933
	C6029	C	0.602678	0.122666	0.970947
	C6030	C	0.598213	0.032493	0.969832
	C6031	C	0.589409	0.032673	0.967652
	C6032	C	0.584856	0.122810	0.966546
	C6033	C	0.589309	0.213075	0.967817
	C6034	C	0.575443	0.122768	0.961953
	C6035	C	0.612092	0.123070	0.975587
	C6036	C	0.549565	0.124596	0.961929
	C6037	C	0.540149	0.125012	0.966477
	C6038	C	0.535601	0.215478	0.967434
	C6039	C	0.526808	0.215904	0.969539
	C6040	C	0.522329	0.126043	0.971000
	C6041	C	0.526877	0.035491	0.970201
	C6042	C	0.535682	0.035097	0.968126
	C6043	C	0.512936	0.125960	0.975602
	C6044	C	0.549586	0.374959	0.913269
	C6045	C	0.540174	0.375186	0.908624
	C6046	C	0.535617	0.465308	0.907712
	C6047	C	0.526812	0.465662	0.905543
	C6048	C	0.522362	0.375529	0.904020
	C6049	C	0.526928	0.285331	0.904865
	C6050	C	0.535713	0.285100	0.907045
	C6051	C	0.512959	0.375638	0.899352
	C6052	C	0.575420	0.372593	0.913327
	C6053	C	0.584827	0.372656	0.908600
	C6054	C	0.589398	0.282384	0.907654
	C6055	C	0.598187	0.282353	0.905407
	C6056	C	0.602651	0.372562	0.904035
	C6057	C	0.598109	0.462822	0.905240
	C6058	C	0.589309	0.462808	0.907442
	C6059	C	0.612046	0.372376	0.899325
	H6060	H	0.601633	0.212284	0.904621
	H6061	H	0.586051	0.211913	0.908465
	H6062	H	0.601482	0.283116	0.970829
	H6063	H	0.585883	0.283277	0.967050
	H6064	H	0.562513	0.123111	0.902202
	H6065	H	0.562500	0.373670	0.972984
	H6066	H	0.499976	0.377138	0.964695
	H6067	H	0.624935	0.122329	0.910493
	H6068	H	0.539148	0.214959	0.907540
	H6069	H	0.523562	0.215107	0.903690
	H6070	H	0.523373	0.286151	0.970044
	H6071	H	0.538971	0.285847	0.966426
	H6072	H	0.523394	0.535913	0.904900
	H6073	H	0.538985	0.535321	0.908728
	H6074	H	0.539133	-0.034925	0.967683
	H6075	H	0.523514	-0.034594	0.971116
	H6076	H	0.586057	-0.037633	0.966736
	H6077	H	0.601627	-0.037754	0.970576
	H6078	H	0.585860	0.532986	0.908227
	H6079	H	0.601467	0.532996	0.904332
	Al6080	Al	0.687488	-0.503151	0.062596
	Al6081	Al	0.687492	-0.253267	0.062545
	Al6082	Al	0.624999	-0.252970	-0.000042
	Al6083	Al	0.624998	-0.502944	0.000039
	O6084	O	0.696785	-0.463129	0.084907
	O6085	O	0.687535	-0.378453	0.045426
	O6086	O	0.687499	-0.128057	0.079494
	O6087	O	0.740846	-0.461531	0.102429
	O6088	O	0.678328	-0.461400	0.085064
	O6089	O	0.634299	-0.462467	0.102819
	O6090	O	0.678189	-0.293023	0.084571
	O6091	O	0.678355	-0.211565	0.039901
	O6092	O	0.634290	-0.213091	0.021960
	O6093	O	0.696724	-0.294853	0.085000
	O6094	O	0.696809	-0.213352	0.040404
	O6095	O	0.740830	-0.212066	0.022468
	O6096	O	0.634196	-0.294066	0.102625
	O6097	O	0.678204	-0.043144	0.040258
	O6098	O	0.634194	-0.044740	0.022527
	O6099	O	0.740714	-0.043780	0.022245
	O6100	O	0.696677	-0.045136	0.039997
	O6101	O	0.740721	-0.293269	0.102816
	O6102	O	0.625016	-0.127193	0.107887
	O6103	O	0.749994	-0.378741	0.017155
	C6104	C	0.723059	-0.287890	0.095185
	C6105	C	0.727678	-0.377899	0.096033
	C6106	C	0.723271	-0.468316	0.094472
	C6107	C	0.714469	-0.469122	0.092370
	C6108	C	0.709860	-0.379088	0.091526
	C6109	C	0.714265	-0.288673	0.093014
	C6110	C	0.700433	-0.379203	0.086964
	C6111	C	0.737084	-0.377415	0.100646
	C6112	C	0.674562	-0.377235	0.086807
	C6113	C	0.665156	-0.377459	0.091511
	C6114	C	0.660555	-0.287340	0.092395
	C6115	C	0.651765	-0.287757	0.094594
	C6116	C	0.647333	-0.378062	0.096055
	C6117	C	0.651926	-0.468120	0.095167
	C6118	C	0.660729	-0.467831	0.093064
	C6119	C	0.637936	-0.378308	0.100725
	C6120	C	0.674584	-0.127645	0.038064
	C6121	C	0.665176	-0.127946	0.033520
	C6122	C	0.660561	-0.038010	0.032573
	C6123	C	0.651764	-0.038513	0.030422
	C6124	C	0.647347	-0.129043	0.028951
	C6125	C	0.651962	-0.218915	0.029924
	C6126	C	0.660755	-0.218476	0.032113
	C6127	C	0.637941	-0.129030	0.024325
	C6128	C	0.700442	-0.129376	0.038107
	C6129	C	0.709850	-0.129051	0.033543
	C6130	C	0.714450	-0.219031	0.032771
	C6131	C	0.723256	-0.218612	0.030583
	C6132	C	0.727671	-0.128282	0.029068
	C6133	C	0.723075	-0.038410	0.030032
	C6134	C	0.714275	-0.038738	0.032158
	C6135	C	0.737079	-0.127999	0.024437
	H6136	H	0.726726	-0.288618	0.029967
	H6137	H	0.711119	-0.289429	0.033779
	H6138	H	0.726354	-0.217450	0.096244
	H6139	H	0.710767	-0.218694	0.092385
	H6140	H	0.687656	-0.378147	0.027210
	H6141	H	0.687533	-0.128313	0.097829
	H6142	H	0.625044	-0.127069	0.089578
	H6143	H	0.749959	-0.378801	0.035485
	H6144	H	0.664224	-0.288643	0.032674
	H6145	H	0.648625	-0.289415	0.028934
	H6146	H	0.648305	-0.217755	0.095082
	H6147	H	0.663897	-0.216962	0.091277
	H6148	H	0.648290	0.031590	0.029902
	H6149	H	0.663901	0.032460	0.033540
	H6150	H	0.664188	-0.538047	0.092425
	H6151	H	0.648588	-0.538555	0.096149
	H6152	H	0.711181	-0.539731	0.091317
	H6153	H	0.726777	-0.538361	0.094957
	H6154	H	0.710814	0.031447	0.032597
	H6155	H	0.726396	0.032047	0.029015
	Al6156	Al	0.687483	-0.003272	0.062464
	Al6157	Al	0.687503	0.246849	0.062519
	Al6158	Al	0.624989	0.247158	-0.000154
	Al6159	Al	0.625032	-0.002975	-0.000031
	O6160	O	0.696781	0.036701	0.084557
	O6161	O	0.687513	0.121943	0.045537
	O6162	O	0.687469	0.372013	0.079466
	O6163	O	0.740804	0.038021	0.102516
	O6164	O	0.678327	0.038189	0.084906
	O6165	O	0.634308	0.037753	0.102895
	O6166	O	0.678211	0.206558	0.084618
	O6167	O	0.678306	0.288222	0.040102
	O6168	O	0.634290	0.286948	0.021960
	O6169	O	0.696666	0.205080	0.085031
	O6170	O	0.696779	0.287214	0.040299
	O6171	O	0.740826	0.288045	0.022748
	O6172	O	0.634191	0.206004	0.102399
	O6173	O	0.678187	0.456779	0.040340
	O6174	O	0.634178	0.455080	0.022454
	O6175	O	0.740689	0.456388	0.022262
	O6176	O	0.696654	0.455250	0.039974
	O6177	O	0.740680	0.206476	0.102941
	O6178	O	0.625039	0.372775	0.107976
	O6179	O	0.749999	0.121255	0.017204
	C6180	C	0.723039	0.211999	0.095099
	C6181	C	0.727644	0.122073	0.096052
	C6182	C	0.723224	0.031718	0.094484
	C6183	C	0.714428	0.031288	0.092351
	C6184	C	0.709818	0.121091	0.091504
	C6185	C	0.714245	0.211544	0.092940
	C6186	C	0.700412	0.120979	0.086889
	C6187	C	0.737044	0.122249	0.100703
	C6188	C	0.674579	0.122439	0.086813
	C6189	C	0.665177	0.122228	0.091568
	C6190	C	0.660609	0.212327	0.092633
	C6191	C	0.651808	0.211905	0.094659
	C6192	C	0.647356	0.121813	0.096016
	C6193	C	0.651923	0.031659	0.095054
	C6194	C	0.660725	0.032068	0.092991
	C6195	C	0.637939	0.121785	0.100636
	C6196	C	0.674546	0.372397	0.038327
	C6197	C	0.665154	0.371982	0.033672
	C6198	C	0.660558	0.461907	0.032584
	C6199	C	0.651771	0.461361	0.030383
	C6200	C	0.647325	0.371081	0.029096
	C6201	C	0.651934	0.281149	0.029923
	C6202	C	0.660728	0.281649	0.032172
	C6203	C	0.637948	0.371069	0.024152
	C6204	C	0.700418	0.371277	0.038136
	C6205	C	0.709822	0.371433	0.033484
	C6206	C	0.714423	0.281526	0.032589
	C6207	C	0.723225	0.281752	0.030472
	C6208	C	0.727662	0.371930	0.029133
	C6209	C	0.723062	0.461879	0.029985
	C6210	C	0.714258	0.461800	0.032070
	C6211	C	0.737057	0.372226	0.024560
	H6212	H	0.726680	0.211511	0.029922
	H6213	H	0.711090	0.211207	0.033618
	H6214	H	0.726383	0.282231	0.096105
	H6215	H	0.710797	0.281606	0.092397
	H6216	H	0.687443	0.121817	0.027246
	H6217	H	0.687401	0.371446	0.097789
	H6218	H	0.625191	0.372439	0.089499
	H6219	H	0.749896	0.121038	0.035582
	H6220	H	0.664214	0.211675	0.032922
	H6221	H	0.648609	0.210606	0.028938
	H6222	H	0.648354	0.282233	0.095334
	H6223	H	0.663953	0.282675	0.091768
	H6224	H	0.648305	0.531498	0.029724
	H6225	H	0.663870	0.532216	0.033675
	H6226	H	0.664175	-0.038137	0.092431
	H6227	H	0.648574	-0.038732	0.096037
	H6228	H	0.711077	-0.038962	0.091368
	H6229	H	0.726676	-0.038839	0.095012
	H6230	H	0.710809	0.531717	0.032681
	H6231	H	0.726407	0.532284	0.029043
	Al6232	Al	0.687494	-0.503258	0.187508
	Al6233	Al	0.687520	-0.253260	0.187399
	Al6234	Al	0.624999	-0.252411	0.124899
	Al6235	Al	0.625015	-0.502151	0.125034
	O6236	O	0.696833	-0.462978	0.209485
	O6237	O	0.687490	-0.378163	0.170530
	O6238	O	0.687490	-0.128467	0.204450
	O6239	O	0.740859	-0.461463	0.227471
	O6240	O	0.678292	-0.461535	0.209871
	O6241	O	0.634301	-0.462522	0.227930
	O6242	O	0.678201	-0.293116	0.209646
	O6243	O	0.678347	-0.211514	0.164892
	O6244	O	0.634284	-0.211985	0.147078
	O6245	O	0.696670	-0.294515	0.209933
	O6246	O	0.696806	-0.212930	0.165166
	O6247	O	0.740868	-0.211851	0.147729
	O6248	O	0.634200	-0.294111	0.227658
	O6249	O	0.678194	-0.042831	0.165208
	O6250	O	0.634198	-0.043697	0.147554
	O6251	O	0.740696	-0.043272	0.147228
	O6252	O	0.696721	-0.044363	0.165061
	O6253	O	0.740701	-0.293200	0.228231
	O6254	O	0.625011	-0.127357	0.233007
	O6255	O	0.749929	-0.378636	0.142092
	C6256	C	0.723066	-0.287504	0.220203
	C6257	C	0.727667	-0.377453	0.221164
	C6258	C	0.723237	-0.467704	0.219605
	C6259	C	0.714449	-0.468334	0.217335
	C6260	C	0.709846	-0.378377	0.216481
	C6261	C	0.714282	-0.288075	0.217935
	C6262	C	0.700447	-0.378713	0.211691
	C6263	C	0.737070	-0.377462	0.225864
	C6264	C	0.674555	-0.377230	0.211798
	C6265	C	0.665151	-0.377293	0.216354
	C6266	C	0.660561	-0.287226	0.217313
	C6267	C	0.651761	-0.287698	0.219504
	C6268	C	0.647339	-0.378165	0.221070
	C6269	C	0.651947	-0.468130	0.220180
	C6270	C	0.660728	-0.467577	0.217948
	C6271	C	0.637943	-0.378206	0.225722
	C6272	C	0.674569	-0.127410	0.163101
	C6273	C	0.665166	-0.127545	0.158416
	C6274	C	0.660587	-0.037433	0.157664
	C6275	C	0.651783	-0.037612	0.155538
	C6276	C	0.647341	-0.127929	0.153935
	C6277	C	0.651920	-0.218099	0.154743
	C6278	C	0.660720	-0.217798	0.156903
	C6279	C	0.637933	-0.127987	0.149344
	C6280	C	0.700463	-0.128795	0.163038
	C6281	C	0.709864	-0.128483	0.158402
	C6282	C	0.714454	-0.218636	0.157631
	C6283	C	0.723245	-0.218578	0.155506
	C6284	C	0.727670	-0.128093	0.153962
	C6285	C	0.723089	-0.037860	0.154736
	C6286	C	0.714294	-0.038031	0.156844
	C6287	C	0.737098	-0.127762	0.149496
	H6288	H	0.726697	-0.288723	0.155113
	H6289	H	0.711090	-0.288992	0.158748
	H6290	H	0.726383	-0.216981	0.221374
	H6291	H	0.710787	-0.218190	0.217410
	H6292	H	0.687475	-0.378259	0.152131
	H6293	H	0.687412	-0.128109	0.222829
	H6294	H	0.625030	-0.127998	0.214591
	H6295	H	0.749911	-0.378786	0.160523
	H6296	H	0.664192	-0.287939	0.157289
	H6297	H	0.648599	-0.288734	0.153601
	H6298	H	0.648280	-0.217893	0.220078
	H6299	H	0.663899	-0.217128	0.216285
	H6300	H	0.648315	0.032367	0.154942
	H6301	H	0.663928	0.032953	0.158658
	H6302	H	0.664220	-0.537591	0.217386
	H6303	H	0.648635	-0.538588	0.221262
	H6304	H	0.711129	-0.538771	0.216259
	H6305	H	0.726733	-0.537689	0.220303
	H6306	H	0.710830	0.032240	0.157303
	H6307	H	0.726447	0.032158	0.153729
	Al6308	Al	0.687498	-0.003318	0.187423
	Al6309	Al	0.687507	0.246881	0.187592
	Al6310	Al	0.625018	0.247760	0.125042
	Al6311	Al	0.625027	-0.002379	0.125065
	O6312	O	0.696790	0.036820	0.209664
	O6313	O	0.687532	0.122047	0.170495
	O6314	O	0.687483	0.371883	0.204635
	O6315	O	0.740828	0.038225	0.227634
	O6316	O	0.678291	0.038363	0.209849
	O6317	O	0.634305	0.037383	0.227988
	O6318	O	0.678217	0.206685	0.209816
	O6319	O	0.678318	0.288597	0.164977
	O6320	O	0.634370	0.287533	0.146954
	O6321	O	0.696690	0.205294	0.210013
	O6322	O	0.696792	0.287212	0.165352
	O6323	O	0.740847	0.288234	0.147634
	O6324	O	0.634165	0.205729	0.227403
	O6325	O	0.678199	0.456817	0.165551
	O6326	O	0.634185	0.455704	0.147545
	O6327	O	0.740683	0.456612	0.147170
	O6328	O	0.696720	0.455357	0.165142
	O6329	O	0.740687	0.206495	0.228019
	O6330	O	0.624988	0.372442	0.233033
	O6331	O	0.749975	0.121416	0.142070
	C6332	C	0.723067	0.212029	0.220195
	C6333	C	0.727660	0.122131	0.221098
	C6334	C	0.723235	0.031723	0.219486
	C6335	C	0.714447	0.031165	0.217239
	C6336	C	0.709846	0.120959	0.216465
	C6337	C	0.714275	0.211375	0.217998
	C6338	C	0.700444	0.121078	0.211895
	C6339	C	0.737053	0.122237	0.225808
	C6340	C	0.674560	0.122625	0.211790
	C6341	C	0.665154	0.122554	0.216441
	C6342	C	0.660564	0.212429	0.217262
	C6343	C	0.651767	0.212290	0.219459
	C6344	C	0.647328	0.122017	0.220840
	C6345	C	0.651922	0.032124	0.220164
	C6346	C	0.660726	0.032239	0.217981
	C6347	C	0.637925	0.121706	0.225674
	C6348	C	0.674566	0.372608	0.163230
	C6349	C	0.665153	0.372555	0.158567
	C6350	C	0.660579	0.462638	0.157698
	C6351	C	0.651789	0.462618	0.155481
	C6352	C	0.647357	0.372260	0.153891
	C6353	C	0.651936	0.282389	0.154825
	C6354	C	0.660722	0.282353	0.156996
	C6355	C	0.637949	0.371810	0.149288
	C6356	C	0.700460	0.371269	0.163307
	C6357	C	0.709862	0.371536	0.158537
	C6358	C	0.714442	0.281488	0.157708
	C6359	C	0.723251	0.281709	0.155637
	C6360	C	0.727674	0.371979	0.154167
	C6361	C	0.723090	0.461954	0.154927
	C6362	C	0.714296	0.461830	0.157029
	C6363	C	0.737071	0.372242	0.149319
	H6364	H	0.726716	0.211493	0.155293
	H6365	H	0.711115	0.211172	0.159027
	H6366	H	0.726393	0.282413	0.221330
	H6367	H	0.710802	0.281509	0.217557
	H6368	H	0.687568	0.122579	0.152081
	H6369	H	0.687401	0.372764	0.222884
	H6370	H	0.624918	0.372541	0.214724
	H6371	H	0.749907	0.121218	0.160452
	H6372	H	0.664142	0.212100	0.157583
	H6373	H	0.648583	0.211977	0.153863
	H6374	H	0.648335	0.282796	0.220075
	H6375	H	0.663897	0.282686	0.216265
	H6376	H	0.648341	0.532695	0.155007
	H6377	H	0.663941	0.532823	0.158824
	H6378	H	0.664157	-0.038082	0.217527
	H6379	H	0.648563	-0.038131	0.221370
	H6380	H	0.711122	-0.039360	0.216094
	H6381	H	0.726693	-0.038472	0.220014
	H6382	H	0.710859	0.531903	0.157745
	H6383	H	0.726402	0.532521	0.153993
	Al6384	Al	0.687492	-0.503371	0.312679
	Al6385	Al	0.687517	-0.253196	0.312411
	Al6386	Al	0.624995	-0.252327	0.250183
	Al6387	Al	0.625006	-0.502600	0.249960
	O6388	O	0.696803	-0.463520	0.334591
	O6389	O	0.687529	-0.378299	0.295480
	O6390	O	0.687509	-0.128218	0.329561
	O6391	O	0.740877	-0.461577	0.352587
	O6392	O	0.678352	-0.461602	0.335208
	O6393	O	0.634354	-0.462650	0.353239
	O6394	O	0.678211	-0.293290	0.334440
	O6395	O	0.678306	-0.211220	0.289954
	O6396	O	0.634281	-0.212316	0.272212
	O6397	O	0.696690	-0.295165	0.335082
	O6398	O	0.696847	-0.213525	0.290465
	O6399	O	0.740875	-0.211372	0.272872
	O6400	O	0.634177	-0.294209	0.352439
	O6401	O	0.678199	-0.042756	0.290502
	O6402	O	0.634166	-0.044076	0.272578
	O6403	O	0.740659	-0.043031	0.272085
	O6404	O	0.696686	-0.045087	0.290104
	O6405	O	0.740707	-0.293234	0.353087
	O6406	O	0.624950	-0.127515	0.358151
	O6407	O	0.750006	-0.378436	0.267227
	C6408	C	0.723064	-0.288156	0.345300
	C6409	C	0.727673	-0.378146	0.346139
	C6410	C	0.723247	-0.468412	0.344536
	C6411	C	0.714452	-0.468689	0.342374
	C6412	C	0.709841	-0.378729	0.341536
	C6413	C	0.714264	-0.288322	0.343131
	C6414	C	0.700443	-0.379367	0.336876
	C6415	C	0.737083	-0.377661	0.350809
	C6416	C	0.674585	-0.377499	0.336957
	C6417	C	0.665178	-0.377483	0.341621
	C6418	C	0.660587	-0.287554	0.342476
	C6419	C	0.651793	-0.287698	0.344674
	C6420	C	0.647361	-0.377976	0.346147
	C6421	C	0.651942	-0.467793	0.345257
	C6422	C	0.660735	-0.467634	0.343063
	C6423	C	0.637964	-0.378388	0.350866
	C6424	C	0.674553	-0.127056	0.288241
	C6425	C	0.665145	-0.127110	0.283666
	C6426	C	0.660548	-0.037146	0.282633
	C6427	C	0.651744	-0.037341	0.280491
	C6428	C	0.647320	-0.127806	0.279071
	C6429	C	0.651912	-0.217786	0.279992
	C6430	C	0.660711	-0.217510	0.282141
	C6431	C	0.637912	-0.128191	0.274571
	C6432	C	0.700450	-0.129245	0.288300
	C6433	C	0.709855	-0.128778	0.283597
	C6434	C	0.714461	-0.218664	0.282836
	C6435	C	0.723255	-0.218122	0.280676
	C6436	C	0.727660	-0.127740	0.279071
	C6437	C	0.723065	-0.037787	0.279832
	C6438	C	0.714270	-0.038343	0.282072
	C6439	C	0.737077	-0.127369	0.274424
	H6440	H	0.726701	-0.288374	0.280167
	H6441	H	0.711088	-0.289086	0.283938
	H6442	H	0.726408	-0.217646	0.346329
	H6443	H	0.710776	-0.218430	0.342632
	H6444	H	0.687460	-0.378824	0.277119
	H6445	H	0.687575	-0.128299	0.347980
	H6446	H	0.624894	-0.127532	0.339643
	H6447	H	0.749925	-0.378343	0.285518
	H6448	H	0.664168	-0.287689	0.282508
	H6449	H	0.648593	-0.288249	0.278865
	H6450	H	0.648350	-0.217585	0.345257
	H6451	H	0.663931	-0.217297	0.341398
	H6452	H	0.648266	0.032671	0.279786
	H6453	H	0.663888	0.033093	0.283379
	H6454	H	0.664182	-0.537934	0.342404
	H6455	H	0.648588	-0.537940	0.346267
	H6456	H	0.711139	-0.539236	0.341253
	H6457	H	0.726722	-0.538481	0.344975
	H6458	H	0.710829	0.031942	0.282593
	H6459	H	0.726392	0.032739	0.278731
	Al6460	Al	0.687503	-0.002971	0.312615
	Al6461	Al	0.687518	0.246817	0.312676
	Al6462	Al	0.624992	0.247346	0.250000
	Al6463	Al	0.624990	-0.002204	0.249959
	O6464	O	0.696816	0.036538	0.334687
	O6465	O	0.687479	0.122028	0.295661
	O6466	O	0.687501	0.371758	0.329750
	O6467	O	0.740896	0.038859	0.352351
	O6468	O	0.678304	0.038505	0.335057
	O6469	O	0.634287	0.037352	0.353074
	O6470	O	0.678186	0.206794	0.334672
	O6471	O	0.678343	0.288777	0.290038
	O6472	O	0.634318	0.287128	0.272158
	O6473	O	0.696655	0.204838	0.335432
	O6474	O	0.696846	0.286369	0.290758
	O6475	O	0.740862	0.288513	0.272668
	O6476	O	0.634184	0.205713	0.352385
	O6477	O	0.678206	0.457119	0.290421
	O6478	O	0.634183	0.455414	0.272489
	O6479	O	0.740685	0.456931	0.272206
	O6480	O	0.696684	0.454594	0.290080
	O6481	O	0.740718	0.207182	0.352962
	O6482	O	0.624963	0.372855	0.357938
	O6483	O	0.750026	0.121556	0.267218
	C6484	C	0.723070	0.211911	0.345263
	C6485	C	0.727686	0.122303	0.346052
	C6486	C	0.723257	0.031890	0.344522
	C6487	C	0.714459	0.031392	0.342377
	C6488	C	0.709856	0.121120	0.341648
	C6489	C	0.714282	0.211478	0.343187
	C6490	C	0.700436	0.120855	0.337068
	C6491	C	0.737108	0.122790	0.350724
	C6492	C	0.674555	0.122625	0.336958
	C6493	C	0.665168	0.122130	0.341709
	C6494	C	0.660583	0.212166	0.342593
	C6495	C	0.651778	0.212078	0.344750
	C6496	C	0.647346	0.121789	0.346185
	C6497	C	0.651931	0.031862	0.345293
	C6498	C	0.660726	0.031869	0.343101
	C6499	C	0.637924	0.121478	0.350748
	C6500	C	0.674583	0.373004	0.288360
	C6501	C	0.665180	0.372580	0.283545
	C6502	C	0.660569	0.462402	0.282718
	C6503	C	0.651780	0.461955	0.280551
	C6504	C	0.647360	0.371645	0.279053
	C6505	C	0.651954	0.281817	0.279938
	C6506	C	0.660747	0.282284	0.282142
	C6507	C	0.637949	0.371335	0.274309
	C6508	C	0.700454	0.370732	0.288301
	C6509	C	0.709860	0.370959	0.283535
	C6510	C	0.714476	0.280904	0.282779
	C6511	C	0.723264	0.281532	0.280629
	C6512	C	0.727672	0.372101	0.279003
	C6513	C	0.723060	0.462106	0.279738
	C6514	C	0.714272	0.461428	0.281852
	C6515	C	0.737085	0.372593	0.274485
	H6516	H	0.726761	0.211491	0.280366
	H6517	H	0.711175	0.210684	0.284004
	H6518	H	0.726396	0.282306	0.346279
	H6519	H	0.710833	0.281484	0.342635
	H6520	H	0.687398	0.121746	0.277194
	H6521	H	0.687545	0.371569	0.348132
	H6522	H	0.624921	0.372794	0.339714
	H6523	H	0.750122	0.122287	0.285558
	H6524	H	0.664229	0.212309	0.282727
	H6525	H	0.648619	0.211528	0.278718
	H6526	H	0.648305	0.282113	0.345365
	H6527	H	0.663930	0.282405	0.341591
	H6528	H	0.648326	0.532136	0.279803
	H6529	H	0.663876	0.532996	0.283685
	H6530	H	0.664177	-0.038329	0.342474
	H6531	H	0.648606	-0.038460	0.346297
	H6532	H	0.711125	-0.038997	0.341175
	H6533	H	0.726702	-0.038242	0.344917
	H6534	H	0.710776	0.531165	0.282395
	H6535	H	0.726390	0.532426	0.278789
	Al6536	Al	0.687466	-0.503131	0.437460
	Al6537	Al	0.687487	-0.253075	0.437589
	Al6538	Al	0.625003	-0.252364	0.375081
	Al6539	Al	0.624988	-0.502171	0.375103
	O6540	O	0.696774	-0.463017	0.459583
	O6541	O	0.687469	-0.377911	0.420528
	O6542	O	0.687498	-0.128356	0.454670
	O6543	O	0.740811	-0.461626	0.477656
	O6544	O	0.678351	-0.461254	0.460147
	O6545	O	0.634288	-0.462686	0.477891
	O6546	O	0.678193	-0.293039	0.459583
	O6547	O	0.678339	-0.211230	0.414801
	O6548	O	0.634281	-0.212504	0.397350
	O6549	O	0.696659	-0.294650	0.460163
	O6550	O	0.696805	-0.213364	0.415463
	O6551	O	0.740826	-0.211410	0.397695
	O6552	O	0.634184	-0.294309	0.477526
	O6553	O	0.678155	-0.042618	0.415500
	O6554	O	0.634162	-0.044350	0.397601
	O6555	O	0.740693	-0.043022	0.397091
	O6556	O	0.696679	-0.044936	0.415082
	O6557	O	0.740643	-0.293087	0.478063
	O6558	O	0.624970	-0.127785	0.483103
	O6559	O	0.750031	-0.378421	0.392219
	C6560	C	0.723020	-0.288021	0.470426
	C6561	C	0.727618	-0.377967	0.471240
	C6562	C	0.723194	-0.468379	0.469460
	C6563	C	0.714396	-0.468750	0.467275
	C6564	C	0.709812	-0.378638	0.466521
	C6565	C	0.714231	-0.288295	0.468273
	C6566	C	0.700388	-0.378841	0.461956
	C6567	C	0.737028	-0.377756	0.475801
	C6568	C	0.674556	-0.377146	0.461892
	C6569	C	0.665146	-0.377686	0.466560
	C6570	C	0.660536	-0.287766	0.467337
	C6571	C	0.651738	-0.288169	0.469492
	C6572	C	0.647313	-0.378482	0.471058
	C6573	C	0.651922	-0.468343	0.470450
	C6574	C	0.660715	-0.467977	0.468336
	C6575	C	0.637931	-0.378547	0.475725
	C6576	C	0.674562	-0.127137	0.413117
	C6577	C	0.665147	-0.127474	0.408533
	C6578	C	0.660556	-0.037488	0.407724
	C6579	C	0.651756	-0.037869	0.405617
	C6580	C	0.647328	-0.128266	0.404059
	C6581	C	0.651912	-0.218318	0.404962
	C6582	C	0.660714	-0.217932	0.407100
	C6583	C	0.637904	-0.128473	0.399552
	C6584	C	0.700433	-0.129004	0.413225
	C6585	C	0.709835	-0.128531	0.408388
	C6586	C	0.714446	-0.218568	0.407774
	C6587	C	0.723250	-0.218010	0.405721
	C6588	C	0.727669	-0.127629	0.404085
	C6589	C	0.723045	-0.037685	0.404786
	C6590	C	0.714245	-0.038083	0.406889
	C6591	C	0.737077	-0.127063	0.399403
	H6592	H	0.726736	-0.288180	0.405276
	H6593	H	0.711109	-0.289144	0.408926
	H6594	H	0.726354	-0.217535	0.471601
	H6595	H	0.710748	-0.218336	0.468006
	H6596	H	0.687457	-0.377287	0.402137
	H6597	H	0.687650	-0.128790	0.473069
	H6598	H	0.624910	-0.127751	0.464683
	H6599	H	0.749973	-0.378404	0.410569
	H6600	H	0.664159	-0.288015	0.407536
	H6601	H	0.648574	-0.288649	0.403891
	H6602	H	0.648241	-0.218202	0.469875
	H6603	H	0.663858	-0.217284	0.466168
	H6604	H	0.648305	0.032343	0.405102
	H6605	H	0.663892	0.032740	0.408753
	H6606	H	0.664194	-0.537899	0.468024
	H6607	H	0.648621	-0.538739	0.471631
	H6608	H	0.711053	-0.538952	0.466208
	H6609	H	0.726660	-0.538412	0.469876
	H6610	H	0.710785	0.032076	0.407401
	H6611	H	0.726347	0.032909	0.403666
	Al6612	Al	0.687507	-0.003487	0.437578
	Al6613	Al	0.687502	0.246759	0.437653
	Al6614	Al	0.625012	0.247742	0.374998
	Al6615	Al	0.624962	-0.002313	0.375132
	O6616	O	0.696831	0.036288	0.459617
	O6617	O	0.687448	0.121696	0.420604
	O6618	O	0.687538	0.371989	0.454536
	O6619	O	0.740843	0.038322	0.477417
	O6620	O	0.678358	0.038492	0.460176
	O6621	O	0.634298	0.036972	0.477818
	O6622	O	0.678188	0.206691	0.459869
	O6623	O	0.678310	0.288312	0.415076
	O6624	O	0.634307	0.287230	0.396994
	O6625	O	0.696658	0.204773	0.460093
	O6626	O	0.696776	0.286738	0.415475
	O6627	O	0.740857	0.288386	0.397782
	O6628	O	0.634160	0.205409	0.477457
	O6629	O	0.678178	0.456784	0.415434
	O6630	O	0.634136	0.455697	0.397618
	O6631	O	0.740665	0.456901	0.397017
	O6632	O	0.696644	0.455113	0.414883
	O6633	O	0.740696	0.206766	0.478020
	O6634	O	0.624955	0.372163	0.483032
	O6635	O	0.750030	0.121862	0.392177
	C6636	C	0.723061	0.212234	0.470433
	C6637	C	0.727680	0.122378	0.471167
	C6638	C	0.723265	0.031808	0.469541
	C6639	C	0.714459	0.031226	0.467265
	C6640	C	0.709840	0.121201	0.466608
	C6641	C	0.714264	0.211623	0.468185
	C6642	C	0.700434	0.120788	0.461835
	C6643	C	0.737082	0.122530	0.475842
	C6644	C	0.674568	0.122519	0.462008
	C6645	C	0.665147	0.122249	0.466509
	C6646	C	0.660542	0.212082	0.467322
	C6647	C	0.651740	0.211464	0.469444
	C6648	C	0.647328	0.121135	0.471006
	C6649	C	0.651937	0.031302	0.470362
	C6650	C	0.660742	0.031836	0.468248
	C6651	C	0.637919	0.121169	0.475581
	C6652	C	0.674544	0.372382	0.413284
	C6653	C	0.665146	0.372206	0.408500
	C6654	C	0.660552	0.462186	0.407830
	C6655	C	0.651748	0.461751	0.405695
	C6656	C	0.647315	0.371599	0.404133
	C6657	C	0.651910	0.281608	0.405010
	C6658	C	0.660725	0.281986	0.407157
	C6659	C	0.637928	0.371619	0.399394
	C6660	C	0.700404	0.370853	0.413117
	C6661	C	0.709824	0.371062	0.408560
	C6662	C	0.714445	0.281365	0.407801
	C6663	C	0.723236	0.282074	0.405655
	C6664	C	0.727660	0.372297	0.404078
	C6665	C	0.723042	0.462117	0.404822
	C6666	C	0.714234	0.461455	0.406963
	C6667	C	0.737068	0.372455	0.399481
	H6668	H	0.726694	0.211972	0.405328
	H6669	H	0.711132	0.210889	0.408917
	H6670	H	0.726365	0.282859	0.471735
	H6671	H	0.710782	0.281766	0.467778
	H6672	H	0.687359	0.122132	0.402250
	H6673	H	0.687540	0.372396	0.472916
	H6674	H	0.624771	0.372670	0.464650
	H6675	H	0.749886	0.121419	0.410568
	H6676	H	0.664195	0.212077	0.407658
	H6677	H	0.648623	0.210978	0.403880
	H6678	H	0.648286	0.281697	0.469877
	H6679	H	0.663870	0.282391	0.466300
	H6680	H	0.648282	0.532023	0.405090
	H6681	H	0.663883	0.532655	0.408897
	H6682	H	0.664201	-0.038338	0.467992
	H6683	H	0.648610	-0.038783	0.471641
	H6684	H	0.711145	-0.039225	0.466113
	H6685	H	0.726739	-0.038400	0.470152
	H6686	H	0.710768	0.531297	0.407499
	H6687	H	0.726387	0.532402	0.403773
	Al6688	Al	0.687471	-0.503826	0.562546
	Al6689	Al	0.687508	-0.253895	0.562550
	Al6690	Al	0.625034	-0.252962	0.500193
	Al6691	Al	0.625007	-0.502787	0.500126
	O6692	O	0.696839	-0.464023	0.584406
	O6693	O	0.687508	-0.378755	0.545450
	O6694	O	0.687532	-0.128849	0.579648
	O6695	O	0.740896	-0.461684	0.602403
	O6696	O	0.678308	-0.461957	0.585092
	O6697	O	0.634340	-0.463100	0.602949
	O6698	O	0.678187	-0.293605	0.584516
	O6699	O	0.678313	-0.212454	0.539970
	O6700	O	0.634304	-0.213042	0.522352
	O6701	O	0.696635	-0.295830	0.585273
	O6702	O	0.696797	-0.213828	0.540484
	O6703	O	0.740844	-0.211681	0.522765
	O6704	O	0.634194	-0.294651	0.602374
	O6705	O	0.678199	-0.043984	0.540581
	O6706	O	0.634170	-0.044776	0.522691
	O6707	O	0.740646	-0.043342	0.521995
	O6708	O	0.696664	-0.045545	0.539993
	O6709	O	0.740645	-0.293455	0.603295
	O6710	O	0.624988	-0.128025	0.607962
	O6711	O	0.749952	-0.378292	0.517183
	C6712	C	0.723052	-0.288510	0.595384
	C6713	C	0.727659	-0.378573	0.596170
	C6714	C	0.723216	-0.468764	0.594449
	C6715	C	0.714417	-0.469243	0.592320
	C6716	C	0.709818	-0.379244	0.591630
	C6717	C	0.714256	-0.288875	0.593252
	C6718	C	0.700425	-0.379813	0.586889
	C6719	C	0.737070	-0.377790	0.600868
	C6720	C	0.674548	-0.377845	0.586830
	C6721	C	0.665136	-0.377738	0.591408
	C6722	C	0.660546	-0.287779	0.592287
	C6723	C	0.651757	-0.287995	0.594381
	C6724	C	0.647336	-0.378331	0.595861
	C6725	C	0.651925	-0.468304	0.595169
	C6726	C	0.660717	-0.468061	0.593067
	C6727	C	0.637950	-0.378655	0.600537
	C6728	C	0.674544	-0.128126	0.538288
	C6729	C	0.665175	-0.128101	0.533532
	C6730	C	0.660573	-0.038115	0.532908
	C6731	C	0.651781	-0.038374	0.530805
	C6732	C	0.647342	-0.128608	0.529204
	C6733	C	0.651955	-0.218530	0.529686
	C6734	C	0.660743	-0.218299	0.531852
	C6735	C	0.637931	-0.128838	0.524500
	C6736	C	0.700440	-0.129632	0.538232
	C6737	C	0.709834	-0.129390	0.533649
	C6738	C	0.714458	-0.219282	0.532918
	C6739	C	0.723245	-0.218804	0.530876
	C6740	C	0.727653	-0.128200	0.529164
	C6741	C	0.723021	-0.038335	0.529937
	C6742	C	0.714244	-0.038912	0.531994
	C6743	C	0.737042	-0.127607	0.524488
	H6744	H	0.726763	-0.288375	0.530575
	H6745	H	0.711151	-0.289588	0.534109
	H6746	H	0.726378	-0.217967	0.596444
	H6747	H	0.710791	-0.218579	0.592746
	H6748	H	0.687632	-0.378882	0.527074
	H6749	H	0.687644	-0.129092	0.597911
	H6750	H	0.625033	-0.127768	0.589534
	H6751	H	0.749830	-0.378130	0.535499
	H6752	H	0.664190	-0.288498	0.532313
	H6753	H	0.648603	-0.288765	0.528360
	H6754	H	0.648288	-0.218062	0.594878
	H6755	H	0.663903	-0.217599	0.591274
	H6756	H	0.648311	0.031734	0.530420
	H6757	H	0.663893	0.032268	0.534120
	H6758	H	0.664199	-0.538009	0.592654
	H6759	H	0.648615	-0.538610	0.596304
	H6760	H	0.711097	-0.539762	0.591020
	H6761	H	0.726701	-0.538809	0.594798
	H6762	H	0.710744	0.031085	0.532546
	H6763	H	0.726343	0.032205	0.529000
	Al6764	Al	0.687481	-0.003817	0.562663
	Al6765	Al	0.687488	0.246231	0.562745
	Al6766	Al	0.625004	0.247100	0.500055
	Al6767	Al	0.624995	-0.002741	0.500061
	O6768	O	0.696790	0.035868	0.584811
	O6769	O	0.687504	0.121486	0.545654
	O6770	O	0.687524	0.371224	0.579747
	O6771	O	0.740826	0.038073	0.602894
	O6772	O	0.678321	0.037799	0.585182
	O6773	O	0.634323	0.036861	0.603023
	O6774	O	0.678222	0.206136	0.584902
	O6775	O	0.678302	0.287583	0.540157
	O6776	O	0.634312	0.286853	0.522023
	O6777	O	0.696637	0.204244	0.585427
	O6778	O	0.696833	0.285666	0.540743
	O6779	O	0.740828	0.288565	0.522680
	O6780	O	0.634135	0.205152	0.602214
	O6781	O	0.678147	0.456075	0.540723
	O6782	O	0.634154	0.455157	0.522837
	O6783	O	0.740654	0.457086	0.522028
	O6784	O	0.696640	0.454044	0.539969
	O6785	O	0.740675	0.206400	0.603181
	O6786	O	0.624962	0.372332	0.607901
	O6787	O	0.749965	0.121080	0.517164
	C6788	C	0.723041	0.211436	0.595364
	C6789	C	0.727643	0.121626	0.596217
	C6790	C	0.723239	0.031157	0.594414
	C6791	C	0.714426	0.030624	0.592337
	C6792	C	0.709813	0.120364	0.591818
	C6793	C	0.714232	0.210716	0.593263
	C6794	C	0.700401	0.120241	0.587129
	C6795	C	0.737036	0.122140	0.601038
	C6796	C	0.674575	0.121981	0.586978
	C6797	C	0.665166	0.122095	0.591592
	C6798	C	0.660552	0.212059	0.592361
	C6799	C	0.651757	0.211835	0.594475
	C6800	C	0.647323	0.121524	0.595893
	C6801	C	0.651934	0.031521	0.595272
	C6802	C	0.660727	0.031746	0.593150
	C6803	C	0.637912	0.121147	0.600604
	C6804	C	0.674528	0.371738	0.538390
	C6805	C	0.665139	0.371581	0.533562
	C6806	C	0.660559	0.461760	0.532813
	C6807	C	0.651761	0.461841	0.530610
	C6808	C	0.647337	0.371498	0.529016
	C6809	C	0.651914	0.281406	0.529686
	C6810	C	0.660708	0.281438	0.531894
	C6811	C	0.637923	0.371173	0.524506
	C6812	C	0.700420	0.370101	0.538355
	C6813	C	0.709827	0.370635	0.533670
	C6814	C	0.714455	0.280859	0.532878
	C6815	C	0.723251	0.281395	0.530661
	C6816	C	0.727642	0.371932	0.529024
	C6817	C	0.723016	0.461709	0.529747
	C6818	C	0.714218	0.461214	0.531962
	C6819	C	0.737055	0.372768	0.524376
	H6820	H	0.726720	0.211378	0.530272
	H6821	H	0.711136	0.210574	0.534019
	H6822	H	0.726337	0.281866	0.596499
	H6823	H	0.710764	0.281020	0.592871
	H6824	H	0.687590	0.121389	0.527321
	H6825	H	0.687570	0.371242	0.598008
	H6826	H	0.624759	0.372134	0.589486
	H6827	H	0.749867	0.121102	0.535621
	H6828	H	0.664153	0.211291	0.532208
	H6829	H	0.648570	0.211015	0.528413
	H6830	H	0.648293	0.282088	0.595148
	H6831	H	0.663881	0.282400	0.591283
	H6832	H	0.648299	0.532205	0.530103
	H6833	H	0.663913	0.532034	0.533902
	H6834	H	0.664199	-0.038444	0.592759
	H6835	H	0.648583	-0.038562	0.596428
	H6836	H	0.711105	-0.039789	0.591177
	H6837	H	0.726696	-0.038986	0.594845
	H6838	H	0.710740	0.531215	0.532433
	H6839	H	0.726341	0.532340	0.528534
	Al6840	Al	0.687518	-0.503583	0.687729
	Al6841	Al	0.687518	-0.253802	0.687565
	Al6842	Al	0.624990	-0.252874	0.624950
	Al6843	Al	0.625012	-0.502872	0.624981
	O6844	O	0.696813	-0.463989	0.709578
	O6845	O	0.687494	-0.378572	0.670615
	O6846	O	0.687527	-0.128948	0.704524
	O6847	O	0.740827	-0.462078	0.727466
	O6848	O	0.678307	-0.462105	0.710148
	O6849	O	0.634284	-0.463007	0.727939
	O6850	O	0.678200	-0.293716	0.709730
	O6851	O	0.678327	-0.211835	0.664895
	O6852	O	0.634277	-0.212974	0.647123
	O6853	O	0.696670	-0.295626	0.710160
	O6854	O	0.696822	-0.214007	0.665532
	O6855	O	0.740877	-0.212264	0.647799
	O6856	O	0.634129	-0.294660	0.727394
	O6857	O	0.678178	-0.043289	0.665634
	O6858	O	0.634130	-0.044872	0.647519
	O6859	O	0.740702	-0.043867	0.647368
	O6860	O	0.696683	-0.045602	0.664961
	O6861	O	0.740716	-0.293654	0.727934
	O6862	O	0.624991	-0.127572	0.732956
	O6863	O	0.750033	-0.378883	0.642137
	C6864	C	0.723036	-0.288440	0.720426
	C6865	C	0.727667	-0.378322	0.721232
	C6866	C	0.723261	-0.468873	0.719594
	C6867	C	0.714466	-0.469396	0.717423
	C6868	C	0.709839	-0.379403	0.716700
	C6869	C	0.714248	-0.289031	0.718288
	C6870	C	0.700433	-0.379678	0.711951
	C6871	C	0.737083	-0.377734	0.725812
	C6872	C	0.674545	-0.377804	0.711909
	C6873	C	0.665139	-0.377929	0.716422
	C6874	C	0.660559	-0.287989	0.717481
	C6875	C	0.651761	-0.288309	0.719692
	C6876	C	0.647296	-0.378632	0.720932
	C6877	C	0.651877	-0.468594	0.720041
	C6878	C	0.660678	-0.468203	0.717863
	C6879	C	0.637906	-0.378787	0.725586
	C6880	C	0.674566	-0.127731	0.663196
	C6881	C	0.665159	-0.128028	0.658505
	C6882	C	0.660574	-0.038056	0.657580
	C6883	C	0.651767	-0.038166	0.655347
	C6884	C	0.647337	-0.128463	0.653856
	C6885	C	0.651927	-0.218457	0.654787
	C6886	C	0.660726	-0.218283	0.657056
	C6887	C	0.637899	-0.128851	0.649379
	C6888	C	0.700447	-0.129705	0.663213
	C6889	C	0.709843	-0.129687	0.658462
	C6890	C	0.714453	-0.219528	0.657814
	C6891	C	0.723252	-0.218769	0.655732
	C6892	C	0.727673	-0.128449	0.654043
	C6893	C	0.723074	-0.038501	0.654859
	C6894	C	0.714276	-0.039137	0.656867
	C6895	C	0.737101	-0.128269	0.649516
	H6896	H	0.726737	-0.288893	0.655351
	H6897	H	0.711137	-0.289936	0.658975
	H6898	H	0.726346	-0.218042	0.721471
	H6899	H	0.710763	-0.218964	0.717658
	H6900	H	0.687524	-0.379070	0.652207
	H6901	H	0.687512	-0.128873	0.722923
	H6902	H	0.624945	-0.128055	0.714588
	H6903	H	0.749962	-0.378590	0.660507
	H6904	H	0.664155	-0.288390	0.657524
	H6905	H	0.648581	-0.288941	0.653703
	H6906	H	0.648319	-0.218137	0.720429
	H6907	H	0.663906	-0.217749	0.716565
	H6908	H	0.648329	0.032184	0.654682
	H6909	H	0.663917	0.032224	0.658494
	H6910	H	0.664123	-0.538706	0.717306
	H6911	H	0.648525	-0.538988	0.721072
	H6912	H	0.711144	-0.539819	0.716134
	H6913	H	0.726751	-0.538806	0.719980
	H6914	H	0.710812	0.031078	0.657311
	H6915	H	0.726395	0.031891	0.653849
	Al6916	Al	0.687538	-0.003687	0.687470
	Al6917	Al	0.687506	0.246370	0.687501
	Al6918	Al	0.625018	0.247243	0.624977
	Al6919	Al	0.624985	-0.002919	0.624901
	O6920	O	0.696804	0.035947	0.709655
	O6921	O	0.687506	0.121255	0.670443
	O6922	O	0.687485	0.371236	0.704580
	O6923	O	0.740845	0.037831	0.727543
	O6924	O	0.678364	0.038213	0.710121
	O6925	O	0.634341	0.036645	0.728110
	O6926	O	0.678201	0.206618	0.709459
	O6927	O	0.678348	0.288281	0.664900
	O6928	O	0.634346	0.286858	0.646972
	O6929	O	0.696672	0.204461	0.710034
	O6930	O	0.696822	0.286198	0.665559
	O6931	O	0.740859	0.288190	0.647758
	O6932	O	0.634217	0.205327	0.727557
	O6933	O	0.678235	0.456709	0.665385
	O6934	O	0.634187	0.455185	0.647430
	O6935	O	0.740718	0.456536	0.647277
	O6936	O	0.696669	0.454530	0.664973
	O6937	O	0.740702	0.206430	0.728156
	O6938	O	0.625007	0.372102	0.733051
	O6939	O	0.750047	0.121239	0.642304
	C6940	C	0.723042	0.211415	0.720345
	C6941	C	0.727665	0.121718	0.721099
	C6942	C	0.723246	0.031278	0.719537
	C6943	C	0.714456	0.030745	0.717401
	C6944	C	0.709837	0.120514	0.716594
	C6945	C	0.714248	0.210853	0.718243
	C6946	C	0.700428	0.120178	0.711906
	C6947	C	0.737083	0.122082	0.725884
	C6948	C	0.674580	0.122303	0.711775
	C6949	C	0.665156	0.121897	0.716454
	C6950	C	0.660570	0.211998	0.717370
	C6951	C	0.651772	0.211759	0.719603
	C6952	C	0.647346	0.121362	0.721024
	C6953	C	0.651932	0.031266	0.720368
	C6954	C	0.660731	0.031545	0.718124
	C6955	C	0.637942	0.121097	0.725766
	C6956	C	0.674604	0.372537	0.663140
	C6957	C	0.665201	0.372651	0.658502
	C6958	C	0.660597	0.462685	0.657660
	C6959	C	0.651792	0.462081	0.655580
	C6960	C	0.647367	0.371689	0.654088
	C6961	C	0.651984	0.281759	0.654780
	C6962	C	0.660788	0.282297	0.656904
	C6963	C	0.637960	0.371098	0.649248
	C6964	C	0.700436	0.370389	0.663324
	C6965	C	0.709849	0.370844	0.658630
	C6966	C	0.714464	0.281037	0.657926
	C6967	C	0.723262	0.281540	0.655820
	C6968	C	0.727672	0.371843	0.654134
	C6969	C	0.723060	0.461773	0.654857
	C6970	C	0.714249	0.461180	0.656964
	C6971	C	0.737086	0.372152	0.649529
	H6972	H	0.726729	0.211579	0.655345
	H6973	H	0.711141	0.210542	0.658968
	H6974	H	0.726385	0.281735	0.721334
	H6975	H	0.710774	0.281041	0.717775
	H6976	H	0.687510	0.121446	0.652067
	H6977	H	0.687430	0.370885	0.722897
	H6978	H	0.625009	0.372462	0.714817
	H6979	H	0.750133	0.121996	0.660629
	H6980	H	0.664268	0.212458	0.657468
	H6981	H	0.648678	0.211375	0.653690
	H6982	H	0.648310	0.281701	0.720197
	H6983	H	0.663875	0.282368	0.716238
	H6984	H	0.648321	0.532029	0.655151
	H6985	H	0.663922	0.533157	0.658813
	H6986	H	0.664215	-0.038511	0.717527
	H6987	H	0.648610	-0.039155	0.721516
	H6988	H	0.711121	-0.039697	0.716178
	H6989	H	0.726721	-0.038734	0.719932
	H6990	H	0.710754	0.531109	0.657305
	H6991	H	0.726371	0.532271	0.653588
	Al6992	Al	0.687506	-0.503875	0.812659
	Al6993	Al	0.687482	-0.253666	0.812865
	Al6994	Al	0.624988	-0.252911	0.750005
	Al6995	Al	0.624982	-0.502837	0.750179
	O6996	O	0.696833	-0.463780	0.834711
	O6997	O	0.687509	-0.378897	0.795714
	O6998	O	0.687525	-0.128537	0.829792
	O6999	O	0.740863	-0.461327	0.852526
	O7000	O	0.678317	-0.462183	0.835148
	O7001	O	0.634291	-0.462922	0.852969
	O7002	O	0.678180	-0.294009	0.834884
	O7003	O	0.678321	-0.211948	0.790307
	O7004	O	0.634340	-0.212948	0.771906
	O7005	O	0.696687	-0.295513	0.835352
	O7006	O	0.696796	-0.213808	0.790692
	O7007	O	0.740799	-0.212250	0.772348
	O7008	O	0.634158	-0.294672	0.852388
	O7009	O	0.678220	-0.043685	0.790555
	O7010	O	0.634204	-0.044664	0.772455
	O7011	O	0.740659	-0.043731	0.772122
	O7012	O	0.696645	-0.045479	0.790115
	O7013	O	0.740670	-0.293154	0.853163
	O7014	O	0.625011	-0.128245	0.858020
	O7015	O	0.749996	-0.378709	0.767022
	C7016	C	0.723056	-0.288097	0.845398
	C7017	C	0.727660	-0.377820	0.846394
	C7018	C	0.723280	-0.468367	0.844839
	C7019	C	0.714483	-0.468995	0.842613
	C7020	C	0.709873	-0.379381	0.841627
	C7021	C	0.714260	-0.288961	0.843110
	C7022	C	0.700457	-0.379562	0.837103
	C7023	C	0.737073	-0.377395	0.850841
	C7024	C	0.674551	-0.378192	0.836980
	C7025	C	0.665152	-0.378158	0.841712
	C7026	C	0.660566	-0.288066	0.842555
	C7027	C	0.651763	-0.288525	0.844607
	C7028	C	0.647323	-0.378723	0.846053
	C7029	C	0.651918	-0.468744	0.845276
	C7030	C	0.660710	-0.468289	0.843163
	C7031	C	0.637926	-0.378831	0.850675
	C7032	C	0.674580	-0.127908	0.788360
	C7033	C	0.665188	-0.128255	0.783660
	C7034	C	0.660581	-0.038336	0.782875
	C7035	C	0.651789	-0.038419	0.780684
	C7036	C	0.647362	-0.128711	0.779031
	C7037	C	0.651958	-0.218819	0.779918
	C7038	C	0.660747	-0.218613	0.782163
	C7039	C	0.637968	-0.128839	0.774296
	C7040	C	0.700417	-0.129666	0.788308
	C7041	C	0.709816	-0.128990	0.783649
	C7042	C	0.714419	-0.218995	0.782785
	C7043	C	0.723211	-0.218417	0.780623
	C7044	C	0.727633	-0.128040	0.778995
	C7045	C	0.723032	-0.038063	0.779988
	C7046	C	0.714234	-0.038662	0.782147
	C7047	C	0.737026	-0.128108	0.774320
	H7048	H	0.726694	-0.288343	0.780125
	H7049	H	0.711089	-0.289391	0.783831
	H7050	H	0.726346	-0.217553	0.846402
	H7051	H	0.710796	-0.219094	0.842572
	H7052	H	0.687535	-0.378287	0.777275
	H7053	H	0.687690	-0.127958	0.848149
	H7054	H	0.624995	-0.128279	0.839666
	H7055	H	0.749951	-0.378522	0.785387
	H7056	H	0.664216	-0.288505	0.782739
	H7057	H	0.648614	-0.289254	0.778838
	H7058	H	0.648271	-0.218214	0.845158
	H7059	H	0.663882	-0.217624	0.841623
	H7060	H	0.648327	0.031638	0.780161
	H7061	H	0.663919	0.032145	0.783964
	H7062	H	0.664202	-0.538196	0.842675
	H7063	H	0.648622	-0.539326	0.846348
	H7064	H	0.711182	-0.539575	0.841629
	H7065	H	0.726750	-0.538429	0.845373
	H7066	H	0.710781	0.031327	0.782610
	H7067	H	0.726331	0.032638	0.778985
	Al7068	Al	0.687521	-0.003737	0.812639
	Al7069	Al	0.687520	0.246451	0.812522
	Al7070	Al	0.625002	0.246986	0.750069
	Al7071	Al	0.625009	-0.002716	0.749992
	O7072	O	0.696828	0.036441	0.834747
	O7073	O	0.687508	0.121071	0.795600
	O7074	O	0.687504	0.371218	0.829599
	O7075	O	0.740882	0.038468	0.852450
	O7076	O	0.678352	0.038096	0.835109
	O7077	O	0.634287	0.036801	0.852953
	O7078	O	0.678208	0.206492	0.834646
	O7079	O	0.678364	0.288568	0.789904
	O7080	O	0.634296	0.287290	0.772090
	O7081	O	0.696681	0.204731	0.835121
	O7082	O	0.696856	0.285845	0.790519
	O7083	O	0.740861	0.288106	0.772718
	O7084	O	0.634194	0.205182	0.852622
	O7085	O	0.678175	0.456785	0.790590
	O7086	O	0.634186	0.455440	0.772570
	O7087	O	0.740695	0.456639	0.772018
	O7088	O	0.696663	0.454312	0.790140
	O7089	O	0.740691	0.206744	0.853183
	O7090	O	0.625053	0.371757	0.858037
	O7091	O	0.750036	0.121607	0.767213
	C7092	C	0.723064	0.212111	0.845369
	C7093	C	0.727681	0.122330	0.846132
	C7094	C	0.723263	0.031992	0.844676
	C7095	C	0.714467	0.031218	0.842602
	C7096	C	0.709857	0.120988	0.841647
	C7097	C	0.714262	0.211470	0.843242
	C7098	C	0.700451	0.120638	0.836953
	C7099	C	0.737087	0.122348	0.850779
	C7100	C	0.674586	0.122230	0.836832
	C7101	C	0.665184	0.121948	0.841705
	C7102	C	0.660574	0.211800	0.842550
	C7103	C	0.651784	0.211539	0.844672
	C7104	C	0.647349	0.120975	0.846189
	C7105	C	0.651947	0.030979	0.845303
	C7106	C	0.660749	0.031402	0.843169
	C7107	C	0.637948	0.121098	0.850773
	C7108	C	0.674588	0.372521	0.788218
	C7109	C	0.665162	0.372147	0.783698
	C7110	C	0.660576	0.462144	0.782786
	C7111	C	0.651779	0.461887	0.780531
	C7112	C	0.647342	0.371545	0.779049
	C7113	C	0.651932	0.281599	0.780038
	C7114	C	0.660735	0.281728	0.782228
	C7115	C	0.637934	0.371432	0.774340
	C7116	C	0.700464	0.370313	0.788361
	C7117	C	0.709849	0.370855	0.783581
	C7118	C	0.714474	0.281246	0.782770
	C7119	C	0.723264	0.281523	0.780646
	C7120	C	0.727682	0.371899	0.779170
	C7121	C	0.723070	0.461713	0.780030
	C7122	C	0.714270	0.461294	0.782218
	C7123	C	0.737075	0.372246	0.774366
	H7124	H	0.726716	0.211250	0.780061
	H7125	H	0.711165	0.210746	0.783822
	H7126	H	0.726378	0.282792	0.846467
	H7127	H	0.710756	0.281271	0.842760
	H7128	H	0.687530	0.121208	0.777257
	H7129	H	0.687594	0.370757	0.848065
	H7130	H	0.625215	0.371679	0.839695
	H7131	H	0.750144	0.121463	0.785631
	H7132	H	0.664165	0.211623	0.782851
	H7133	H	0.648588	0.211308	0.779189
	H7134	H	0.648355	0.281755	0.845344
	H7135	H	0.663934	0.282032	0.841596
	H7136	H	0.648347	0.532023	0.779942
	H7137	H	0.663935	0.532397	0.783827
	H7138	H	0.664215	-0.038800	0.842704
	H7139	H	0.648583	-0.039247	0.846481
	H7140	H	0.711164	-0.039174	0.841643
	H7141	H	0.726750	-0.038111	0.845280
	H7142	H	0.710802	0.531292	0.782966
	H7143	H	0.726406	0.532049	0.778996
	Al7144	Al	0.687490	-0.503835	0.937531
	Al7145	Al	0.687542	-0.253989	0.937671
	Al7146	Al	0.625032	-0.253295	0.875031
	Al7147	Al	0.624974	-0.503151	0.875120
	O7148	O	0.696832	-0.464026	0.959636
	O7149	O	0.687529	-0.378671	0.920617
	O7150	O	0.687513	-0.128697	0.954635
	O7151	O	0.740893	-0.461988	0.977485
	O7152	O	0.678324	-0.462542	0.960041
	O7153	O	0.634296	-0.463379	0.977894
	O7154	O	0.678212	-0.294244	0.959639
	O7155	O	0.678362	-0.211937	0.915000
	O7156	O	0.634318	-0.213209	0.897014
	O7157	O	0.696667	-0.295772	0.960326
	O7158	O	0.696845	-0.213986	0.915658
	O7159	O	0.740885	-0.211320	0.897745
	O7160	O	0.634130	-0.295311	0.977427
	O7161	O	0.678183	-0.043673	0.915740
	O7162	O	0.634155	-0.044923	0.897643
	O7163	O	0.740653	-0.042840	0.897066
	O7164	O	0.696643	-0.045682	0.914943
	O7165	O	0.740696	-0.293741	0.978149
	O7166	O	0.624986	-0.128114	0.982930
	O7167	O	0.749964	-0.378609	0.892117
	C7168	C	0.723086	-0.288773	0.970253
	C7169	C	0.727692	-0.378674	0.971211
	C7170	C	0.723267	-0.469037	0.969573
	C7171	C	0.714464	-0.469442	0.967379
	C7172	C	0.709855	-0.379612	0.966632
	C7173	C	0.714294	-0.289291	0.968096
	C7174	C	0.700455	-0.379958	0.962111
	C7175	C	0.737085	-0.378210	0.975771
	C7176	C	0.674570	-0.378511	0.961930
	C7177	C	0.665176	-0.378561	0.966596
	C7178	C	0.660587	-0.288665	0.967648
	C7179	C	0.651794	-0.288974	0.969683
	C7180	C	0.647337	-0.379133	0.971014
	C7181	C	0.651937	-0.469240	0.969970
	C7182	C	0.660733	-0.468918	0.967986
	C7183	C	0.637913	-0.379179	0.975673
	C7184	C	0.674579	-0.127821	0.913307
	C7185	C	0.665178	-0.128143	0.908635
	C7186	C	0.660599	-0.038156	0.907607
	C7187	C	0.651793	-0.038390	0.905418
	C7188	C	0.647358	-0.128594	0.903930
	C7189	C	0.651934	-0.218580	0.905077
	C7190	C	0.660746	-0.218540	0.907298
	C7191	C	0.637949	-0.128932	0.899273
	C7192	C	0.700446	-0.129656	0.913218
	C7193	C	0.709861	-0.129213	0.908627
	C7194	C	0.714465	-0.219054	0.907911
	C7195	C	0.723269	-0.218637	0.905827
	C7196	C	0.727673	-0.128145	0.904214
	C7197	C	0.723066	-0.038301	0.905021
	C7198	C	0.714273	-0.038856	0.907089
	C7199	C	0.737081	-0.127388	0.899492
	H7200	H	0.726742	-0.288559	0.905384
	H7201	H	0.711132	-0.289465	0.908926
	H7202	H	0.726414	-0.218585	0.971277
	H7203	H	0.710839	-0.219073	0.967668
	H7204	H	0.687455	-0.378561	0.902335
	H7205	H	0.687470	-0.128435	0.973045
	H7206	H	0.624939	-0.128574	0.964507
	H7207	H	0.750025	-0.378412	0.910510
	H7208	H	0.664178	-0.288904	0.908050
	H7209	H	0.648573	-0.288861	0.904270
	H7210	H	0.648326	-0.218948	0.970245
	H7211	H	0.663920	-0.218391	0.966650
	H7212	H	0.648363	0.031841	0.904914
	H7213	H	0.663932	0.032298	0.908620
	H7214	H	0.664215	-0.538758	0.967253
	H7215	H	0.648585	-0.539636	0.970699
	H7216	H	0.711116	-0.539810	0.966284
	H7217	H	0.726727	-0.538945	0.970018
	H7218	H	0.710808	0.031000	0.907505
	H7219	H	0.726366	0.032247	0.903948
	Al7220	Al	0.687517	-0.003871	0.937650
	Al7221	Al	0.687526	0.246195	0.937574
	Al7222	Al	0.625007	0.246843	0.875025
	Al7223	Al	0.624993	-0.003083	0.875091
	O7224	O	0.696830	0.036098	0.959719
	O7225	O	0.687493	0.121025	0.920613
	O7226	O	0.687482	0.371163	0.954576
	O7227	O	0.740869	0.038084	0.977582
	O7228	O	0.678338	0.037744	0.960194
	O7229	O	0.634309	0.036597	0.977895
	O7230	O	0.678182	0.206300	0.959524
	O7231	O	0.678304	0.287844	0.915101
	O7232	O	0.634242	0.286794	0.897373
	O7233	O	0.696676	0.204610	0.960184
	O7234	O	0.696848	0.285711	0.915528
	O7235	O	0.740892	0.288168	0.897811
	O7236	O	0.634177	0.205002	0.977514
	O7237	O	0.678181	0.456049	0.915437
	O7238	O	0.634170	0.455122	0.897611
	O7239	O	0.740703	0.456298	0.897197
	O7240	O	0.696674	0.453993	0.915000
	O7241	O	0.740724	0.206289	0.978060
	O7242	O	0.625070	0.372017	0.982867
	O7243	O	0.749994	0.121033	0.892309
	C7244	C	0.723076	0.211398	0.970343
	C7245	C	0.727686	0.121525	0.971213
	C7246	C	0.723261	0.031257	0.969754
	C7247	C	0.714462	0.030746	0.967554
	C7248	C	0.709851	0.120584	0.966687
	C7249	C	0.714268	0.210894	0.968084
	C7250	C	0.700446	0.120475	0.961937
	C7251	C	0.737094	0.122008	0.975830
	C7252	C	0.674576	0.121924	0.961937
	C7253	C	0.665162	0.121633	0.966551
	C7254	C	0.660596	0.211805	0.967575
	C7255	C	0.651786	0.211492	0.969680
	C7256	C	0.647350	0.121089	0.971058
	C7257	C	0.651930	0.031077	0.970005
	C7258	C	0.660728	0.031315	0.967969
	C7259	C	0.637934	0.120896	0.975688
	C7260	C	0.674554	0.371833	0.913248
	C7261	C	0.665146	0.371317	0.908644
	C7262	C	0.660561	0.461351	0.907678
	C7263	C	0.651762	0.460961	0.905582
	C7264	C	0.647323	0.370814	0.904091
	C7265	C	0.651916	0.280813	0.905126
	C7266	C	0.660716	0.281016	0.907185
	C7267	C	0.637922	0.370729	0.899429
	C7268	C	0.700457	0.369977	0.913306
	C7269	C	0.709876	0.370522	0.908572
	C7270	C	0.714491	0.280579	0.907704
	C7271	C	0.723275	0.281213	0.905635
	C7272	C	0.727704	0.371560	0.904267
	C7273	C	0.723081	0.461409	0.905041
	C7274	C	0.714289	0.460963	0.907094
	C7275	C	0.737098	0.372185	0.899500
	H7276	H	0.726746	0.211020	0.905160
	H7277	H	0.711155	0.210082	0.908925
	H7278	H	0.726371	0.281805	0.971461
	H7279	H	0.710788	0.280923	0.967456
	H7280	H	0.687505	0.121151	0.902179
	H7281	H	0.687285	0.371159	0.972938
	H7282	H	0.625268	0.372617	0.964468
	H7283	H	0.749880	0.120297	0.910724
	H7284	H	0.664172	0.210915	0.907893
	H7285	H	0.648604	0.210320	0.904226
	H7286	H	0.648327	0.281704	0.970168
	H7287	H	0.663958	0.281989	0.966618
	H7288	H	0.648298	0.531179	0.904978
	H7289	H	0.663914	0.531638	0.908648
	H7290	H	0.664168	-0.038997	0.967401
	H7291	H	0.648595	-0.039416	0.970841
	H7292	H	0.711175	-0.039764	0.966546
	H7293	H	0.726734	-0.038901	0.970392
	H7294	H	0.710815	0.530990	0.907751
	H7295	H	0.726406	0.531839	0.904142
	Al7296	Al	0.812508	-0.504054	0.062614
	Al7297	Al	0.812484	-0.253975	0.062797
	Al7298	Al	0.750034	-0.253618	0.000061
	Al7299	Al	0.750003	-0.503852	0.000162
	O7300	O	0.821826	-0.463919	0.084801
	O7301	O	0.812544	-0.378921	0.045659
	O7302	O	0.812508	-0.128976	0.079850
	O7303	O	0.865857	-0.461670	0.102559
	O7304	O	0.803342	-0.462146	0.085119
	O7305	O	0.759318	-0.463771	0.103139
	O7306	O	0.803205	-0.293895	0.084945
	O7307	O	0.803312	-0.212417	0.040361
	O7308	O	0.759311	-0.214032	0.022156
	O7309	O	0.821653	-0.295529	0.085272
	O7310	O	0.821797	-0.214083	0.040532
	O7311	O	0.865813	-0.212010	0.022750
	O7312	O	0.759198	-0.295603	0.102463
	O7313	O	0.803180	-0.044109	0.040720
	O7314	O	0.759164	-0.045798	0.022615
	O7315	O	0.865728	-0.043840	0.022317
	O7316	O	0.821679	-0.045851	0.040258
	O7317	O	0.865711	-0.293486	0.102919
	O7318	O	0.750016	-0.128549	0.108028
	O7319	O	0.875012	-0.378853	0.017258
	C7320	C	0.848059	-0.288454	0.095302
	C7321	C	0.852674	-0.378122	0.096157
	C7322	C	0.848256	-0.468593	0.094662
	C7323	C	0.839456	-0.469219	0.092623
	C7324	C	0.834834	-0.379397	0.091874
	C7325	C	0.839272	-0.288923	0.093243
	C7326	C	0.825434	-0.379602	0.087115
	C7327	C	0.862089	-0.377740	0.100786
	C7328	C	0.799576	-0.377976	0.087058
	C7329	C	0.790168	-0.378580	0.091612
	C7330	C	0.785574	-0.288585	0.092613
	C7331	C	0.776777	-0.288992	0.094712
	C7332	C	0.772352	-0.379318	0.096103
	C7333	C	0.776947	-0.469195	0.095155
	C7334	C	0.785746	-0.468876	0.093044
	C7335	C	0.762946	-0.379635	0.100798
	C7336	C	0.799564	-0.128232	0.038442
	C7337	C	0.790153	-0.128492	0.033741
	C7338	C	0.785565	-0.038611	0.032783
	C7339	C	0.776764	-0.039320	0.030563
	C7340	C	0.772344	-0.129579	0.029087
	C7341	C	0.776931	-0.219514	0.029987
	C7342	C	0.785729	-0.218723	0.032154
	C7343	C	0.762938	-0.129813	0.024435
	C7344	C	0.825439	-0.129880	0.038393
	C7345	C	0.834830	-0.129335	0.033672
	C7346	C	0.839461	-0.218894	0.032710
	C7347	C	0.848262	-0.218371	0.030574
	C7348	C	0.852676	-0.127994	0.029198
	C7349	C	0.848046	-0.038263	0.029904
	C7350	C	0.839246	-0.038853	0.032092
	C7351	C	0.862075	-0.127918	0.024479
	H7352	H	0.851750	-0.288388	0.030146
	H7353	H	0.836143	-0.289408	0.033836
	H7354	H	0.851417	-0.218163	0.096199
	H7355	H	0.835827	-0.218835	0.092566
	H7356	H	0.812592	-0.379005	0.027386
	H7357	H	0.812425	-0.129172	0.098190
	H7358	H	0.749913	-0.128779	0.089592
	H7359	H	0.875046	-0.379015	0.035555
	H7360	H	0.789188	-0.288689	0.032752
	H7361	H	0.773615	-0.289865	0.029056
	H7362	H	0.773314	-0.218864	0.095220
	H7363	H	0.788890	-0.218179	0.091689
	H7364	H	0.773307	0.030888	0.030081
	H7365	H	0.788884	0.031770	0.033846
	H7366	H	0.789199	-0.538979	0.092341
	H7367	H	0.773617	-0.539357	0.095988
	H7368	H	0.836122	-0.539404	0.091528
	H7369	H	0.851739	-0.538700	0.095120
	H7370	H	0.835767	0.031162	0.032719
	H7371	H	0.851370	0.032285	0.028961
	Al7372	Al	0.812542	-0.003774	0.062778
	Al7373	Al	0.812492	0.246280	0.062578
	Al7374	Al	0.750017	0.246369	0.000197
	Al7375	Al	0.750014	-0.003742	0.000125
	O7376	O	0.821780	0.036583	0.084949
	O7377	O	0.812525	0.121011	0.045578
	O7378	O	0.812498	0.371053	0.079617
	O7379	O	0.865821	0.038356	0.102483
	O7380	O	0.803327	0.038206	0.085263
	O7381	O	0.759301	0.036426	0.102953
	O7382	O	0.803184	0.206355	0.084698
	O7383	O	0.803305	0.287871	0.040061
	O7384	O	0.759291	0.286138	0.022531
	O7385	O	0.821636	0.204599	0.085274
	O7386	O	0.821833	0.286129	0.040586
	O7387	O	0.865859	0.288267	0.022703
	O7388	O	0.759159	0.204582	0.102447
	O7389	O	0.803203	0.456306	0.040568
	O7390	O	0.759160	0.454374	0.022832
	O7391	O	0.865717	0.456590	0.022188
	O7392	O	0.821679	0.454397	0.040020
	O7393	O	0.865725	0.206618	0.102790
	O7394	O	0.750042	0.371481	0.108011
	O7395	O	0.875045	0.121360	0.017244
	C7396	C	0.848054	0.211859	0.095347
	C7397	C	0.852656	0.121967	0.096169
	C7398	C	0.848250	0.031515	0.094675
	C7399	C	0.839450	0.031137	0.092644
	C7400	C	0.834833	0.121081	0.091771
	C7401	C	0.839251	0.211394	0.093247
	C7402	C	0.825411	0.120607	0.087110
	C7403	C	0.862087	0.122646	0.100614
	C7404	C	0.799566	0.122146	0.086983
	C7405	C	0.790152	0.121986	0.091555
	C7406	C	0.785558	0.211570	0.092521
	C7407	C	0.776751	0.211198	0.094601
	C7408	C	0.772338	0.120914	0.095997
	C7409	C	0.776944	0.031224	0.095206
	C7410	C	0.785746	0.031704	0.093042
	C7411	C	0.762934	0.120731	0.100721
	C7412	C	0.799550	0.372046	0.038396
	C7413	C	0.790163	0.371985	0.033748
	C7414	C	0.785572	0.461922	0.032772
	C7415	C	0.776769	0.461423	0.030608
	C7416	C	0.772337	0.370996	0.029239
	C7417	C	0.776938	0.281208	0.029915
	C7418	C	0.785732	0.281755	0.032056
	C7419	C	0.762926	0.370394	0.024689
	C7420	C	0.825457	0.370360	0.038306
	C7421	C	0.834867	0.370988	0.033696
	C7422	C	0.839477	0.281144	0.032844
	C7423	C	0.848268	0.281665	0.030717
	C7424	C	0.852689	0.372054	0.029198
	C7425	C	0.848091	0.462024	0.030177
	C7426	C	0.839286	0.461539	0.032293
	C7427	C	0.862091	0.372428	0.024515
	H7428	H	0.851742	0.211498	0.030164
	H7429	H	0.836169	0.210645	0.033874
	H7430	H	0.851359	0.282240	0.096478
	H7431	H	0.835781	0.281421	0.092826
	H7432	H	0.812438	0.120471	0.027126
	H7433	H	0.812533	0.371110	0.097922
	H7434	H	0.750173	0.371665	0.089646
	H7435	H	0.875104	0.121192	0.035511
	H7436	H	0.789197	0.211826	0.032519
	H7437	H	0.773618	0.210926	0.028785
	H7438	H	0.773306	0.281218	0.095084
	H7439	H	0.788870	0.282014	0.091485
	H7440	H	0.773297	0.531591	0.030021
	H7441	H	0.788914	0.532270	0.033789
	H7442	H	0.789199	-0.038236	0.092429
	H7443	H	0.773628	-0.039172	0.096185
	H7444	H	0.836137	-0.039460	0.091702
	H7445	H	0.851717	-0.038392	0.095259
	H7446	H	0.835795	0.531314	0.032808
	H7447	H	0.851409	0.532563	0.029188
	Al7448	Al	0.812492	-0.503376	0.187585
	Al7449	Al	0.812500	-0.253126	0.187576
	Al7450	Al	0.750014	-0.253480	0.124997
	Al7451	Al	0.749979	-0.503503	0.125101
	O7452	O	0.821796	-0.463618	0.209698
	O7453	O	0.812491	-0.378213	0.170565
	O7454	O	0.812512	-0.128419	0.204701
	O7455	O	0.865781	-0.462262	0.227700
	O7456	O	0.803349	-0.461323	0.210143
	O7457	O	0.759344	-0.463481	0.228056
	O7458	O	0.803171	-0.292837	0.209677
	O7459	O	0.803355	-0.211153	0.165059
	O7460	O	0.759334	-0.213963	0.147053
	O7461	O	0.821639	-0.295192	0.210254
	O7462	O	0.821843	-0.213377	0.165520
	O7463	O	0.865839	-0.212099	0.147594
	O7464	O	0.759222	-0.294995	0.227565
	O7465	O	0.803188	-0.042638	0.165697
	O7466	O	0.759160	-0.045484	0.147587
	O7467	O	0.865731	-0.043540	0.147092
	O7468	O	0.821681	-0.044992	0.165165
	O7469	O	0.865696	-0.293940	0.227859
	O7470	O	0.750028	-0.128691	0.233063
	O7471	O	0.874991	-0.378757	0.142150
	C7472	C	0.848030	-0.288020	0.220210
	C7473	C	0.852633	-0.377900	0.221075
	C7474	C	0.848220	-0.468326	0.219609
	C7475	C	0.839418	-0.468930	0.217434
	C7476	C	0.834814	-0.378992	0.216578
	C7477	C	0.839227	-0.288554	0.218052
	C7478	C	0.825403	-0.379431	0.211943
	C7479	C	0.862050	-0.378092	0.225750
	C7480	C	0.799567	-0.377380	0.211928
	C7481	C	0.790163	-0.377743	0.216690
	C7482	C	0.785539	-0.288018	0.217478
	C7483	C	0.776747	-0.288521	0.219596
	C7484	C	0.772363	-0.379124	0.221118
	C7485	C	0.776974	-0.469045	0.220354
	C7486	C	0.785771	-0.468415	0.218249
	C7487	C	0.762958	-0.379200	0.225803
	C7488	C	0.799580	-0.127125	0.163420
	C7489	C	0.790163	-0.127724	0.158690
	C7490	C	0.785557	-0.038000	0.157727
	C7491	C	0.776755	-0.038622	0.155590
	C7492	C	0.772344	-0.129121	0.154170
	C7493	C	0.776955	-0.218921	0.155058
	C7494	C	0.785763	-0.218328	0.157201
	C7495	C	0.762939	-0.129454	0.149398
	C7496	C	0.825451	-0.129107	0.163325
	C7497	C	0.834868	-0.128889	0.158709
	C7498	C	0.839459	-0.218748	0.157770
	C7499	C	0.848261	-0.218106	0.155574
	C7500	C	0.852684	-0.127674	0.154122
	C7501	C	0.848097	-0.037849	0.155120
	C7502	C	0.839302	-0.038554	0.157307
	C7503	C	0.862087	-0.127792	0.149423
	H7504	H	0.851700	-0.288281	0.154921
	H7505	H	0.836113	-0.289208	0.158746
	H7506	H	0.851361	-0.217682	0.221352
	H7507	H	0.835769	-0.218466	0.217612
	H7508	H	0.812526	-0.378117	0.152305
	H7509	H	0.812459	-0.127885	0.223000
	H7510	H	0.750144	-0.128748	0.214689
	H7511	H	0.874995	-0.378261	0.160513
	H7512	H	0.789250	-0.288285	0.157637
	H7513	H	0.773635	-0.289454	0.153896
	H7514	H	0.773268	-0.218581	0.220112
	H7515	H	0.788844	-0.217814	0.216446
	H7516	H	0.773314	0.031689	0.154883
	H7517	H	0.788872	0.032628	0.158620
	H7518	H	0.789271	-0.538318	0.217812
	H7519	H	0.773653	-0.539169	0.221486
	H7520	H	0.836096	-0.539483	0.216473
	H7521	H	0.851664	-0.538460	0.220352
	H7522	H	0.835852	0.031530	0.157850
	H7523	H	0.851421	0.032545	0.154033
	Al7524	Al	0.812494	-0.003293	0.187681
	Al7525	Al	0.812493	0.246579	0.187670
	Al7526	Al	0.749986	0.246649	0.125074
	Al7527	Al	0.750010	-0.003536	0.125008
	O7528	O	0.821787	0.036746	0.209770
	O7529	O	0.812478	0.121512	0.170622
	O7530	O	0.812496	0.371779	0.204687
	O7531	O	0.865833	0.038313	0.227409
	O7532	O	0.803349	0.038422	0.210369
	O7533	O	0.759329	0.036326	0.228101
	O7534	O	0.803136	0.206735	0.209554
	O7535	O	0.803359	0.288824	0.165148
	O7536	O	0.759342	0.285691	0.146991
	O7537	O	0.821637	0.205091	0.210423
	O7538	O	0.821825	0.286232	0.165554
	O7539	O	0.865813	0.287836	0.147612
	O7540	O	0.759142	0.204578	0.227456
	O7541	O	0.803153	0.457192	0.165623
	O7542	O	0.759152	0.454245	0.147579
	O7543	O	0.865697	0.456256	0.147259
	O7544	O	0.821662	0.454586	0.165097
	O7545	O	0.865685	0.206644	0.228050
	O7546	O	0.750066	0.371890	0.233072
	O7547	O	0.874948	0.121337	0.142096
	C7548	C	0.848070	0.212016	0.220185
	C7549	C	0.852644	0.122144	0.221125
	C7550	C	0.848218	0.031885	0.219605
	C7551	C	0.839432	0.031484	0.217491
	C7552	C	0.834840	0.121412	0.216711
	C7553	C	0.839279	0.211704	0.218055
	C7554	C	0.825416	0.121073	0.212051
	C7555	C	0.862067	0.122427	0.225713
	C7556	C	0.799557	0.122487	0.212027
	C7557	C	0.790153	0.121933	0.216587
	C7558	C	0.785572	0.211888	0.217699
	C7559	C	0.776769	0.211332	0.219818
	C7560	C	0.772348	0.121062	0.221132
	C7561	C	0.776944	0.031255	0.220155
	C7562	C	0.785738	0.031610	0.218045
	C7563	C	0.762955	0.120606	0.225776
	C7564	C	0.799564	0.372741	0.163391
	C7565	C	0.790144	0.371972	0.158854
	C7566	C	0.785535	0.461805	0.157903
	C7567	C	0.776748	0.460958	0.155602
	C7568	C	0.772334	0.370531	0.154081
	C7569	C	0.776949	0.280726	0.154964
	C7570	C	0.785735	0.281583	0.157253
	C7571	C	0.762935	0.370019	0.149337
	C7572	C	0.825437	0.370566	0.163215
	C7573	C	0.834833	0.370787	0.158570
	C7574	C	0.839441	0.280761	0.157698
	C7575	C	0.848232	0.281340	0.155551
	C7576	C	0.852663	0.371680	0.154156
	C7577	C	0.848054	0.461604	0.154972
	C7578	C	0.839258	0.461084	0.157128
	C7579	C	0.862076	0.372054	0.149430
	H7580	H	0.851744	0.211613	0.155035
	H7581	H	0.836143	0.210212	0.158888
	H7582	H	0.851409	0.282407	0.221219
	H7583	H	0.835808	0.281635	0.217497
	H7584	H	0.812398	0.121662	0.152291
	H7585	H	0.812573	0.371818	0.223103
	H7586	H	0.750259	0.372268	0.214656
	H7587	H	0.874909	0.121474	0.160419
	H7588	H	0.789241	0.211747	0.157724
	H7589	H	0.773640	0.210286	0.153851
	H7590	H	0.773302	0.281392	0.220386
	H7591	H	0.788904	0.282290	0.216665
	H7592	H	0.773262	0.531059	0.154979
	H7593	H	0.788847	0.532225	0.158834
	H7594	H	0.789196	-0.038500	0.217341
	H7595	H	0.773607	-0.039402	0.220969
	H7596	H	0.836123	-0.039009	0.216543
	H7597	H	0.851700	-0.038113	0.220237
	H7598	H	0.835773	0.530791	0.157873
	H7599	H	0.851359	0.532325	0.154062
	Al7600	Al	0.812479	-0.503460	0.312430
	Al7601	Al	0.812519	-0.253402	0.312598
	Al7602	Al	0.750002	-0.253357	0.250145
	Al7603	Al	0.750003	-0.503507	0.250187
	O7604	O	0.821830	-0.464123	0.334572
	O7605	O	0.812479	-0.378292	0.295472
	O7606	O	0.812455	-0.128604	0.329532
	O7607	O	0.865835	-0.461785	0.352383
	O7608	O	0.803353	-0.461427	0.335083
	O7609	O	0.759315	-0.463791	0.353023
	O7610	O	0.803183	-0.293128	0.334647
	O7611	O	0.803390	-0.211542	0.289863
	O7612	O	0.759339	-0.213490	0.272189
	O7613	O	0.821650	-0.295590	0.335217
	O7614	O	0.821838	-0.213636	0.290714
	O7615	O	0.865852	-0.212019	0.272623
	O7616	O	0.759139	-0.295581	0.352508
	O7617	O	0.803190	-0.043195	0.290635
	O7618	O	0.759203	-0.044934	0.272600
	O7619	O	0.865727	-0.043569	0.272111
	O7620	O	0.821681	-0.045104	0.290154
	O7621	O	0.865692	-0.293722	0.352734
	O7622	O	0.750041	-0.128658	0.358142
	O7623	O	0.874995	-0.378450	0.267084
	C7624	C	0.848037	-0.288359	0.345322
	C7625	C	0.852652	-0.378211	0.346023
	C7626	C	0.848252	-0.468780	0.344501
	C7627	C	0.839449	-0.469360	0.342333
	C7628	C	0.834833	-0.379446	0.341671
	C7629	C	0.839236	-0.289058	0.343190
	C7630	C	0.825432	-0.379861	0.336867
	C7631	C	0.862071	-0.377892	0.350614
	C7632	C	0.799591	-0.377637	0.336848
	C7633	C	0.790160	-0.378149	0.341561
	C7634	C	0.785545	-0.288265	0.342383
	C7635	C	0.776748	-0.288527	0.344503
	C7636	C	0.772334	-0.378937	0.345992
	C7637	C	0.776952	-0.468950	0.345323
	C7638	C	0.785747	-0.468560	0.343228
	C7639	C	0.762923	-0.379605	0.350696
	C7640	C	0.799608	-0.127606	0.288259
	C7641	C	0.790182	-0.128030	0.283552
	C7642	C	0.785598	-0.038013	0.282682
	C7643	C	0.776809	-0.038511	0.280478
	C7644	C	0.772377	-0.129043	0.278938
	C7645	C	0.776967	-0.218960	0.279838
	C7646	C	0.785761	-0.218461	0.282020
	C7647	C	0.762944	-0.129190	0.274270
	C7648	C	0.825446	-0.129412	0.288311
	C7649	C	0.834851	-0.129004	0.283586
	C7650	C	0.839434	-0.219109	0.282762
	C7651	C	0.848252	-0.218550	0.280644
	C7652	C	0.852681	-0.128148	0.279087
	C7653	C	0.848079	-0.038211	0.279868
	C7654	C	0.839283	-0.038646	0.281992
	C7655	C	0.862084	-0.127744	0.274403
	H7656	H	0.851742	-0.288628	0.280199
	H7657	H	0.836103	-0.289638	0.283912
	H7658	H	0.851327	-0.217636	0.346571
	H7659	H	0.835748	-0.218794	0.342733
	H7660	H	0.812407	-0.378062	0.277141
	H7661	H	0.812245	-0.128325	0.347818
	H7662	H	0.750053	-0.128845	0.339770
	H7663	H	0.875004	-0.378968	0.285459
	H7664	H	0.789223	-0.288363	0.282748
	H7665	H	0.773632	-0.289306	0.278898
	H7666	H	0.773260	-0.218349	0.345001
	H7667	H	0.788869	-0.217653	0.341424
	H7668	H	0.773337	0.031372	0.280028
	H7669	H	0.788918	0.032346	0.283877
	H7670	H	0.789246	-0.538410	0.342882
	H7671	H	0.773640	-0.539402	0.346463
	H7672	H	0.836149	-0.539853	0.341173
	H7673	H	0.851717	-0.538687	0.345012
	H7674	H	0.835823	0.031551	0.282542
	H7675	H	0.851405	0.032388	0.278891
	Al7676	Al	0.812524	-0.003483	0.312580
	Al7677	Al	0.812485	0.246427	0.312532
	Al7678	Al	0.749976	0.246425	0.249899
	Al7679	Al	0.750018	-0.003465	0.250150
	O7680	O	0.821780	0.036810	0.334740
	O7681	O	0.812487	0.121349	0.295457
	O7682	O	0.812489	0.371507	0.329494
	O7683	O	0.865817	0.037777	0.352484
	O7684	O	0.803374	0.038332	0.335245
	O7685	O	0.759383	0.035918	0.353124
	O7686	O	0.803197	0.206564	0.334619
	O7687	O	0.803335	0.288073	0.289937
	O7688	O	0.759297	0.286362	0.272020
	O7689	O	0.821667	0.205242	0.335040
	O7690	O	0.821754	0.286615	0.290511
	O7691	O	0.865834	0.287934	0.272699
	O7692	O	0.759144	0.204502	0.352477
	O7693	O	0.803137	0.456411	0.290535
	O7694	O	0.759134	0.454733	0.272722
	O7695	O	0.865711	0.456206	0.272307
	O7696	O	0.821656	0.454821	0.289814
	O7697	O	0.865680	0.206247	0.353082
	O7698	O	0.750019	0.371653	0.358072
	O7699	O	0.875006	0.121390	0.267014
	C7700	C	0.848066	0.211644	0.345279
	C7701	C	0.852654	0.121629	0.346039
	C7702	C	0.848218	0.031366	0.344543
	C7703	C	0.839419	0.031048	0.342313
	C7704	C	0.834832	0.121058	0.341520
	C7705	C	0.839262	0.211336	0.343047
	C7706	C	0.825413	0.121170	0.336912
	C7707	C	0.862070	0.121953	0.350777
	C7708	C	0.799600	0.122421	0.336884
	C7709	C	0.790170	0.122124	0.341479
	C7710	C	0.785565	0.212123	0.342250
	C7711	C	0.776758	0.211840	0.344366
	C7712	C	0.772352	0.121381	0.345945
	C7713	C	0.776956	0.031510	0.345218
	C7714	C	0.785758	0.031849	0.343132
	C7715	C	0.762945	0.120478	0.350688
	C7716	C	0.799544	0.372200	0.288143
	C7717	C	0.790151	0.371835	0.283480
	C7718	C	0.785548	0.461666	0.282702
	C7719	C	0.776745	0.461224	0.280550
	C7720	C	0.772329	0.370950	0.278905
	C7721	C	0.776929	0.281064	0.279772
	C7722	C	0.785727	0.281517	0.281957
	C7723	C	0.762923	0.370574	0.274323
	C7724	C	0.825413	0.370740	0.288066
	C7725	C	0.834810	0.370901	0.283455
	C7726	C	0.839422	0.281118	0.282645
	C7727	C	0.848226	0.281347	0.280572
	C7728	C	0.852654	0.371631	0.279130
	C7729	C	0.848051	0.461567	0.279977
	C7730	C	0.839239	0.461287	0.282086
	C7731	C	0.862066	0.372127	0.274497
	H7732	H	0.851672	0.211234	0.280111
	H7733	H	0.836094	0.210647	0.283683
	H7734	H	0.851400	0.281894	0.346363
	H7735	H	0.835814	0.281644	0.342407
	H7736	H	0.812262	0.120777	0.277121
	H7737	H	0.812646	0.371369	0.347780
	H7738	H	0.750022	0.371498	0.339715
	H7739	H	0.874990	0.121107	0.285471
	H7740	H	0.789194	0.211354	0.282517
	H7741	H	0.773596	0.210460	0.278787
	H7742	H	0.773306	0.282135	0.344907
	H7743	H	0.788873	0.282305	0.341207
	H7744	H	0.773272	0.531543	0.280127
	H7745	H	0.788872	0.532097	0.283901
	H7746	H	0.789205	-0.038473	0.342746
	H7747	H	0.773613	-0.038814	0.346285
	H7748	H	0.836101	-0.039490	0.341059
	H7749	H	0.851670	-0.038810	0.345022
	H7750	H	0.835777	0.531191	0.282770
	H7751	H	0.851380	0.531854	0.279076
	Al7752	Al	0.812514	-0.503557	0.437689
	Al7753	Al	0.812530	-0.253387	0.437640
	Al7754	Al	0.750004	-0.253375	0.375172
	Al7755	Al	0.750026	-0.503365	0.375107
	O7756	O	0.821799	-0.463891	0.459868
	O7757	O	0.812529	-0.378794	0.420633
	O7758	O	0.812486	-0.128540	0.454670
	O7759	O	0.865871	-0.461794	0.477376
	O7760	O	0.803381	-0.461291	0.460356
	O7761	O	0.759331	-0.463572	0.478228
	O7762	O	0.803190	-0.292919	0.459493
	O7763	O	0.803365	-0.211723	0.415036
	O7764	O	0.759372	-0.213863	0.397184
	O7765	O	0.821672	-0.295616	0.460209
	O7766	O	0.821845	-0.214116	0.415725
	O7767	O	0.865797	-0.212491	0.397465
	O7768	O	0.759177	-0.295078	0.477597
	O7769	O	0.803196	-0.043334	0.415420
	O7770	O	0.759140	-0.045648	0.397783
	O7771	O	0.865682	-0.044223	0.397200
	O7772	O	0.821621	-0.046040	0.414938
	O7773	O	0.865726	-0.293446	0.477838
	O7774	O	0.750073	-0.128501	0.483023
	O7775	O	0.875017	-0.378543	0.392069
	C7776	C	0.848052	-0.288269	0.470432
	C7777	C	0.852677	-0.378130	0.471055
	C7778	C	0.848273	-0.468457	0.469247
	C7779	C	0.839465	-0.469314	0.467168
	C7780	C	0.834850	-0.379392	0.466613
	C7781	C	0.839256	-0.289000	0.468335
	C7782	C	0.825439	-0.379771	0.462029
	C7783	C	0.862098	-0.377640	0.475672
	C7784	C	0.799591	-0.377246	0.461862
	C7785	C	0.790173	-0.377970	0.466572
	C7786	C	0.785544	-0.288230	0.467156
	C7787	C	0.776752	-0.288644	0.469399
	C7788	C	0.772333	-0.379006	0.471105
	C7789	C	0.776953	-0.468974	0.470469
	C7790	C	0.785755	-0.468469	0.468247
	C7791	C	0.762938	-0.379323	0.475930
	C7792	C	0.799583	-0.127755	0.413256
	C7793	C	0.790189	-0.127711	0.408631
	C7794	C	0.785570	-0.038031	0.407962
	C7795	C	0.776780	-0.038686	0.405735
	C7796	C	0.772357	-0.128850	0.404121
	C7797	C	0.776981	-0.218520	0.404682
	C7798	C	0.785776	-0.217872	0.406904
	C7799	C	0.762962	-0.129286	0.399393
	C7800	C	0.825425	-0.129819	0.413242
	C7801	C	0.834829	-0.129235	0.408674
	C7802	C	0.839416	-0.219169	0.407903
	C7803	C	0.848210	-0.218827	0.405682
	C7804	C	0.852636	-0.128592	0.404026
	C7805	C	0.848028	-0.038768	0.404827
	C7806	C	0.839248	-0.039009	0.407002
	C7807	C	0.862035	-0.128417	0.399347
	H7808	H	0.851708	-0.288440	0.405402
	H7809	H	0.836111	-0.289730	0.409139
	H7810	H	0.851341	-0.217388	0.471566
	H7811	H	0.835774	-0.219178	0.467962
	H7812	H	0.812464	-0.378832	0.402279
	H7813	H	0.812362	-0.128484	0.473014
	H7814	H	0.750185	-0.128472	0.464669
	H7815	H	0.875036	-0.378170	0.410521
	H7816	H	0.789270	-0.287971	0.407596
	H7817	H	0.773677	-0.288908	0.403596
	H7818	H	0.773319	-0.218354	0.469829
	H7819	H	0.788891	-0.217881	0.465935
	H7820	H	0.773300	0.031190	0.405446
	H7821	H	0.788864	0.032531	0.409378
	H7822	H	0.789233	-0.538443	0.467832
	H7823	H	0.773608	-0.539255	0.471778
	H7824	H	0.836154	-0.539705	0.465887
	H7825	H	0.851774	-0.538254	0.469502
	H7826	H	0.835761	0.030769	0.407610
	H7827	H	0.851322	0.031721	0.403908
	Al7828	Al	0.812480	-0.003505	0.437568
	Al7829	Al	0.812524	0.246445	0.437447
	Al7830	Al	0.750024	0.246531	0.375145
	Al7831	Al	0.750022	-0.003157	0.375090
	O7832	O	0.821829	0.036215	0.459519
	O7833	O	0.812550	0.121478	0.420490
	O7834	O	0.812505	0.371254	0.454591
	O7835	O	0.865830	0.037678	0.477714
	O7836	O	0.803314	0.037919	0.459937
	O7837	O	0.759332	0.036017	0.478241
	O7838	O	0.803224	0.206299	0.459663
	O7839	O	0.803363	0.288271	0.414901
	O7840	O	0.759319	0.286535	0.397096
	O7841	O	0.821660	0.204189	0.460134
	O7842	O	0.821824	0.286480	0.415294
	O7843	O	0.865857	0.288388	0.397525
	O7844	O	0.759161	0.204554	0.477556
	O7845	O	0.803194	0.456936	0.415618
	O7846	O	0.759179	0.454801	0.397713
	O7847	O	0.865705	0.456649	0.397212
	O7848	O	0.821716	0.454738	0.415225
	O7849	O	0.865706	0.206034	0.478135
	O7850	O	0.749980	0.371534	0.483137
	O7851	O	0.875062	0.120936	0.392062
	C7852	C	0.848062	0.211392	0.470434
	C7853	C	0.852673	0.121540	0.471268
	C7854	C	0.848263	0.031320	0.469537
	C7855	C	0.839472	0.030962	0.467366
	C7856	C	0.834854	0.120735	0.466612
	C7857	C	0.839259	0.211102	0.468299
	C7858	C	0.825446	0.120386	0.461886
	C7859	C	0.862073	0.121856	0.475894
	C7860	C	0.799581	0.122293	0.461843
	C7861	C	0.790170	0.122220	0.466594
	C7862	C	0.785542	0.212064	0.467281
	C7863	C	0.776735	0.211190	0.469489
	C7864	C	0.772344	0.120606	0.471062
	C7865	C	0.776978	0.030925	0.470595
	C7866	C	0.785777	0.031785	0.468365
	C7867	C	0.762932	0.120268	0.475836
	C7868	C	0.799582	0.372563	0.413135
	C7869	C	0.790170	0.372138	0.408610
	C7870	C	0.785564	0.462028	0.407849
	C7871	C	0.776764	0.461676	0.405697
	C7872	C	0.772372	0.371048	0.403969
	C7873	C	0.776979	0.281310	0.404808
	C7874	C	0.785773	0.281719	0.407004
	C7875	C	0.762944	0.370758	0.399508
	C7876	C	0.825456	0.370731	0.413256
	C7877	C	0.834859	0.370893	0.408555
	C7878	C	0.839480	0.281117	0.407973
	C7879	C	0.848269	0.281418	0.405821
	C7880	C	0.852678	0.371795	0.404098
	C7881	C	0.848068	0.461600	0.404779
	C7882	C	0.839275	0.461285	0.406911
	C7883	C	0.862091	0.372383	0.399457
	H7884	H	0.851730	0.211160	0.405150
	H7885	H	0.836127	0.210835	0.408948
	H7886	H	0.851415	0.281689	0.471526
	H7887	H	0.835778	0.281368	0.467871
	H7888	H	0.812605	0.121366	0.402153
	H7889	H	0.812565	0.370820	0.472919
	H7890	H	0.749857	0.371964	0.464813
	H7891	H	0.875270	0.120813	0.410468
	H7892	H	0.789221	0.211718	0.407460
	H7893	H	0.773654	0.210776	0.403718
	H7894	H	0.773242	0.281171	0.469932
	H7895	H	0.788829	0.282628	0.465967
	H7896	H	0.773301	0.531683	0.405352
	H7897	H	0.788916	0.532499	0.408951
	H7898	H	0.789256	-0.038147	0.467934
	H7899	H	0.773697	-0.039880	0.471862
	H7900	H	0.836143	-0.039528	0.466142
	H7901	H	0.851721	-0.038770	0.469854
	H7902	H	0.835810	0.531272	0.407098
	H7903	H	0.851411	0.531939	0.403336
	Al7904	Al	0.812536	-0.504183	0.562551
	Al7905	Al	0.812527	-0.254171	0.562671
	Al7906	Al	0.749985	-0.253410	0.500020
	Al7907	Al	0.750027	-0.503374	0.500098
	O7908	O	0.821852	-0.464538	0.584583
	O7909	O	0.812507	-0.379101	0.545643
	O7910	O	0.812485	-0.129087	0.579644
	O7911	O	0.865868	-0.462082	0.602261
	O7912	O	0.803362	-0.461954	0.585162
	O7913	O	0.759319	-0.464134	0.603064
	O7914	O	0.803156	-0.293779	0.584538
	O7915	O	0.803390	-0.211747	0.539921
	O7916	O	0.759320	-0.214069	0.522172
	O7917	O	0.821621	-0.295910	0.585522
	O7918	O	0.821829	-0.214425	0.540519
	O7919	O	0.865886	-0.211718	0.522639
	O7920	O	0.759167	-0.295743	0.602577
	O7921	O	0.803193	-0.043796	0.540749
	O7922	O	0.759151	-0.045853	0.522759
	O7923	O	0.865695	-0.043433	0.522252
	O7924	O	0.821691	-0.046131	0.539971
	O7925	O	0.865710	-0.293526	0.603136
	O7926	O	0.750074	-0.128862	0.608216
	O7927	O	0.874986	-0.378701	0.516917
	C7928	C	0.848052	-0.288239	0.595361
	C7929	C	0.852680	-0.378233	0.596064
	C7930	C	0.848272	-0.468531	0.594510
	C7931	C	0.839470	-0.469162	0.592391
	C7932	C	0.834841	-0.379310	0.591629
	C7933	C	0.839236	-0.288738	0.593257
	C7934	C	0.825422	-0.379981	0.587013
	C7935	C	0.862095	-0.377699	0.600688
	C7936	C	0.799573	-0.378067	0.586933
	C7937	C	0.790140	-0.378585	0.591604
	C7938	C	0.785536	-0.288787	0.592268
	C7939	C	0.776739	-0.289112	0.594471
	C7940	C	0.772333	-0.379479	0.596225
	C7941	C	0.776936	-0.469352	0.595700
	C7942	C	0.785735	-0.468963	0.593473
	C7943	C	0.762920	-0.379904	0.600775
	C7944	C	0.799583	-0.128018	0.538359
	C7945	C	0.790184	-0.128459	0.533667
	C7946	C	0.785561	-0.038689	0.533123
	C7947	C	0.776762	-0.039100	0.530951
	C7948	C	0.772342	-0.129415	0.529212
	C7949	C	0.776962	-0.219122	0.529711
	C7950	C	0.785747	-0.218782	0.531850
	C7951	C	0.762937	-0.129814	0.524506
	C7952	C	0.825452	-0.130329	0.538309
	C7953	C	0.834860	-0.129990	0.533577
	C7954	C	0.839490	-0.219792	0.533013
	C7955	C	0.848291	-0.218809	0.530811
	C7956	C	0.852674	-0.128565	0.529007
	C7957	C	0.848048	-0.038820	0.529670
	C7958	C	0.839247	-0.039731	0.531865
	C7959	C	0.862081	-0.128009	0.524398
	H7960	H	0.851801	-0.288631	0.530356
	H7961	H	0.836215	-0.290272	0.534160
	H7962	H	0.851359	-0.217906	0.596464
	H7963	H	0.835728	-0.218973	0.592749
	H7964	H	0.812409	-0.378359	0.527362
	H7965	H	0.812355	-0.128919	0.597919
	H7966	H	0.750338	-0.128739	0.590015
	H7967	H	0.875013	-0.378899	0.535277
	H7968	H	0.789202	-0.289011	0.532066
	H7969	H	0.773653	-0.289493	0.528308
	H7970	H	0.773290	-0.218863	0.594856
	H7971	H	0.788857	-0.218364	0.590968
	H7972	H	0.773270	0.030947	0.530488
	H7973	H	0.788908	0.031724	0.534323
	H7974	H	0.789189	-0.539101	0.593115
	H7975	H	0.773609	-0.539561	0.597042
	H7976	H	0.836186	-0.539886	0.591282
	H7977	H	0.851764	-0.538689	0.594946
	H7978	H	0.835755	0.030108	0.532156
	H7979	H	0.851317	0.031933	0.528325
	Al7980	Al	0.812528	-0.004016	0.562585
	Al7981	Al	0.812540	0.246031	0.562692
	Al7982	Al	0.750006	0.246291	0.500115
	Al7983	Al	0.749995	-0.003918	0.500049
	O7984	O	0.821806	0.035966	0.584684
	O7985	O	0.812522	0.121053	0.545571
	O7986	O	0.812489	0.371231	0.579773
	O7987	O	0.865864	0.038487	0.602400
	O7988	O	0.803377	0.037759	0.585365
	O7989	O	0.759341	0.035870	0.603350
	O7990	O	0.803178	0.206063	0.584538
	O7991	O	0.803324	0.288021	0.540184
	O7992	O	0.759346	0.286180	0.522170
	O7993	O	0.821718	0.204488	0.585127
	O7994	O	0.821848	0.286035	0.540647
	O7995	O	0.865868	0.288338	0.522669
	O7996	O	0.759155	0.204290	0.602492
	O7997	O	0.803223	0.456155	0.540674
	O7998	O	0.759161	0.454580	0.522671
	O7999	O	0.865699	0.456567	0.522037
	O8000	O	0.821692	0.454387	0.540086
	O8001	O	0.865671	0.206871	0.603019
	O8002	O	0.750035	0.371028	0.608126
	O8003	O	0.875001	0.121768	0.517187
	C8004	C	0.848051	0.211601	0.595271
	C8005	C	0.852680	0.121979	0.596033
	C8006	C	0.848293	0.031379	0.594408
	C8007	C	0.839481	0.030636	0.592330
	C8008	C	0.834855	0.120359	0.591625
	C8009	C	0.839255	0.210906	0.593176
	C8010	C	0.825456	0.120082	0.586880
	C8011	C	0.862075	0.122549	0.600664
	C8012	C	0.799568	0.121631	0.586938
	C8013	C	0.790180	0.121266	0.591649
	C8014	C	0.785573	0.211160	0.592217
	C8015	C	0.776778	0.210957	0.594482
	C8016	C	0.772346	0.120597	0.596272
	C8017	C	0.776961	0.030668	0.595737
	C8018	C	0.785755	0.031040	0.593493
	C8019	C	0.762940	0.120228	0.600938
	C8020	C	0.799583	0.372174	0.538333
	C8021	C	0.790168	0.372002	0.533710
	C8022	C	0.785546	0.461828	0.533137
	C8023	C	0.776775	0.461298	0.530892
	C8024	C	0.772349	0.371031	0.529100
	C8025	C	0.776954	0.281095	0.529658
	C8026	C	0.785741	0.281669	0.531882
	C8027	C	0.762932	0.370773	0.524491
	C8028	C	0.825466	0.370377	0.538236
	C8029	C	0.834846	0.370606	0.533636
	C8030	C	0.839477	0.280868	0.532939
	C8031	C	0.848263	0.281572	0.530807
	C8032	C	0.852678	0.372003	0.529126
	C8033	C	0.848041	0.461668	0.529938
	C8034	C	0.839255	0.461023	0.532011
	C8035	C	0.862081	0.372412	0.524324
	H8036	H	0.851744	0.211646	0.530407
	H8037	H	0.836142	0.210677	0.534065
	H8038	H	0.851353	0.282270	0.596520
	H8039	H	0.835776	0.280981	0.592917
	H8040	H	0.812568	0.120870	0.527208
	H8041	H	0.812414	0.371574	0.598135
	H8042	H	0.750235	0.370894	0.589835
	H8043	H	0.874888	0.122115	0.535553
	H8044	H	0.789229	0.211539	0.532291
	H8045	H	0.773613	0.210878	0.528533
	H8046	H	0.773294	0.280875	0.594810
	H8047	H	0.788884	0.281841	0.590858
	H8048	H	0.773317	0.531380	0.530688
	H8049	H	0.788860	0.532190	0.534553
	H8050	H	0.789231	-0.039030	0.593098
	H8051	H	0.773670	-0.039810	0.597022
	H8052	H	0.836157	-0.039635	0.591355
	H8053	H	0.851772	-0.038609	0.594915
	H8054	H	0.835771	0.531066	0.532455
	H8055	H	0.851390	0.531762	0.528876
	Al8056	Al	0.812504	-0.503763	0.687801
	Al8057	Al	0.812512	-0.253692	0.687565
	Al8058	Al	0.749997	-0.253933	0.625092
	Al8059	Al	0.749995	-0.503883	0.625216
	O8060	O	0.821836	-0.463799	0.709714
	O8061	O	0.812510	-0.379022	0.670744
	O8062	O	0.812485	-0.128640	0.704685
	O8063	O	0.865853	-0.462077	0.727688
	O8064	O	0.803399	-0.462008	0.710523
	O8065	O	0.759357	-0.464212	0.728078
	O8066	O	0.803247	-0.293431	0.709720
	O8067	O	0.803345	-0.211845	0.665012
	O8068	O	0.759327	-0.214250	0.647080
	O8069	O	0.821690	-0.295526	0.710208
	O8070	O	0.821825	-0.213760	0.665602
	O8071	O	0.865831	-0.211995	0.647570
	O8072	O	0.759190	-0.295829	0.727367
	O8073	O	0.803172	-0.043416	0.665584
	O8074	O	0.759198	-0.045696	0.647934
	O8075	O	0.865707	-0.043504	0.647191
	O8076	O	0.821673	-0.045616	0.665222
	O8077	O	0.865712	-0.293589	0.728166
	O8078	O	0.750041	-0.128521	0.733158
	O8079	O	0.874999	-0.378429	0.642126
	C8080	C	0.848073	-0.288514	0.720357
	C8081	C	0.852685	-0.378491	0.721206
	C8082	C	0.848272	-0.469018	0.719513
	C8083	C	0.839471	-0.469406	0.717410
	C8084	C	0.834863	-0.379368	0.716672
	C8085	C	0.839273	-0.288842	0.718205
	C8086	C	0.825444	-0.379588	0.712049
	C8087	C	0.862099	-0.377796	0.725901
	C8088	C	0.799632	-0.377688	0.712168
	C8089	C	0.790227	-0.378144	0.716729
	C8090	C	0.785604	-0.288336	0.717291
	C8091	C	0.776802	-0.288711	0.719343
	C8092	C	0.772386	-0.379252	0.721116
	C8093	C	0.777018	-0.469154	0.720470
	C8094	C	0.785812	-0.468784	0.718384
	C8095	C	0.762957	-0.379716	0.725727
	C8096	C	0.799575	-0.127825	0.663316
	C8097	C	0.790157	-0.128382	0.658728
	C8098	C	0.785539	-0.038610	0.658117
	C8099	C	0.776755	-0.039392	0.655964
	C8100	C	0.772358	-0.129892	0.654241
	C8101	C	0.776979	-0.219531	0.654815
	C8102	C	0.785767	-0.218915	0.656998
	C8103	C	0.762962	-0.129907	0.649541
	C8104	C	0.825446	-0.129492	0.663344
	C8105	C	0.834843	-0.128836	0.658589
	C8106	C	0.839467	-0.218529	0.657925
	C8107	C	0.848254	-0.218129	0.655736
	C8108	C	0.852675	-0.127835	0.654011
	C8109	C	0.848065	-0.038049	0.654863
	C8110	C	0.839264	-0.038521	0.657042
	C8111	C	0.862076	-0.127896	0.649378
	H8112	H	0.851709	-0.288314	0.655348
	H8113	H	0.836135	-0.289038	0.659109
	H8114	H	0.851426	-0.218217	0.721351
	H8115	H	0.835820	-0.218662	0.717686
	H8116	H	0.812655	-0.379426	0.652333
	H8117	H	0.812544	-0.128645	0.723071
	H8118	H	0.750012	-0.128253	0.714753
	H8119	H	0.874907	-0.378243	0.660318
	H8120	H	0.789272	-0.288853	0.657335
	H8121	H	0.773662	-0.289986	0.653550
	H8122	H	0.773297	-0.218665	0.719582
	H8123	H	0.788934	-0.218099	0.716082
	H8124	H	0.773295	0.030502	0.655605
	H8125	H	0.788861	0.031619	0.659360
	H8126	H	0.789282	-0.538856	0.717997
	H8127	H	0.773689	-0.539578	0.721539
	H8128	H	0.836123	-0.539792	0.716176
	H8129	H	0.851734	-0.539103	0.719783
	H8130	H	0.835794	0.031314	0.657504
	H8131	H	0.851402	0.032371	0.653772
	Al8132	Al	0.812482	-0.003537	0.687653
	Al8133	Al	0.812509	0.246119	0.687657
	Al8134	Al	0.750011	0.246239	0.625102
	Al8135	Al	0.750009	-0.003589	0.625298
	O8136	O	0.821837	0.035888	0.709831
	O8137	O	0.812508	0.121244	0.670644
	O8138	O	0.812493	0.370993	0.704753
	O8139	O	0.865840	0.037794	0.727666
	O8140	O	0.803341	0.038248	0.710145
	O8141	O	0.759288	0.036267	0.728088
	O8142	O	0.803182	0.206530	0.709726
	O8143	O	0.803370	0.288103	0.664863
	O8144	O	0.759357	0.285865	0.647117
	O8145	O	0.821656	0.204229	0.710235
	O8146	O	0.821825	0.286147	0.665646
	O8147	O	0.865848	0.288350	0.647596
	O8148	O	0.759185	0.204464	0.727654
	O8149	O	0.803169	0.456268	0.665888
	O8150	O	0.759167	0.454141	0.647789
	O8151	O	0.865684	0.456753	0.647018
	O8152	O	0.821694	0.454630	0.665092
	O8153	O	0.865731	0.206343	0.727957
	O8154	O	0.750005	0.371350	0.733029
	O8155	O	0.875012	0.121224	0.642188
	C8156	C	0.848066	0.211721	0.720631
	C8157	C	0.852680	0.121759	0.721373
	C8158	C	0.848266	0.031327	0.719715
	C8159	C	0.839461	0.030621	0.717532
	C8160	C	0.834855	0.120595	0.716747
	C8161	C	0.839269	0.211003	0.718411
	C8162	C	0.825439	0.120209	0.712003
	C8163	C	0.862089	0.122031	0.725844
	C8164	C	0.799558	0.122305	0.711933
	C8165	C	0.790147	0.121567	0.716669
	C8166	C	0.785513	0.211221	0.717212
	C8167	C	0.776714	0.210636	0.719397
	C8168	C	0.772333	0.120207	0.721184
	C8169	C	0.776948	0.030393	0.720553
	C8170	C	0.785764	0.031131	0.718397
	C8171	C	0.762926	0.120193	0.725904
	C8172	C	0.799563	0.372190	0.663407
	C8173	C	0.790163	0.371746	0.658673
	C8174	C	0.785536	0.461349	0.658177
	C8175	C	0.776746	0.460591	0.655958
	C8176	C	0.772338	0.370310	0.654241
	C8177	C	0.776953	0.280536	0.654799
	C8178	C	0.785739	0.281398	0.656970
	C8179	C	0.762950	0.370147	0.649522
	C8180	C	0.825458	0.370421	0.663298
	C8181	C	0.834850	0.370568	0.658602
	C8182	C	0.839483	0.280785	0.657967
	C8183	C	0.848275	0.281387	0.655781
	C8184	C	0.852668	0.371870	0.653965
	C8185	C	0.848032	0.461530	0.654742
	C8186	C	0.839244	0.460877	0.656892
	C8187	C	0.862069	0.372526	0.649328
	H8188	H	0.851761	0.211370	0.655365
	H8189	H	0.836150	0.210214	0.659147
	H8190	H	0.851373	0.282286	0.721766
	H8191	H	0.835777	0.280988	0.717929
	H8192	H	0.812661	0.121060	0.652224
	H8193	H	0.812403	0.370362	0.723059
	H8194	H	0.749959	0.371196	0.714586
	H8195	H	0.875079	0.121401	0.660510
	H8196	H	0.789237	0.211367	0.657363
	H8197	H	0.773641	0.209956	0.653520
	H8198	H	0.773255	0.280730	0.719626
	H8199	H	0.788790	0.281892	0.715845
	H8200	H	0.773263	0.530600	0.655524
	H8201	H	0.788827	0.531963	0.659481
	H8202	H	0.789225	-0.038807	0.717975
	H8203	H	0.773637	-0.040239	0.721782
	H8204	H	0.836173	-0.039892	0.716368
	H8205	H	0.851773	-0.038455	0.720160
	H8206	H	0.835760	0.530804	0.657203
	H8207	H	0.851332	0.532033	0.653520
	Al8208	Al	0.812481	-0.503254	0.812707
	Al8209	Al	0.812541	-0.252965	0.812556
	Al8210	Al	0.750034	-0.253847	0.749940
	Al8211	Al	0.750008	-0.503758	0.750039
	O8212	O	0.821835	-0.463097	0.834590
	O8213	O	0.812503	-0.378268	0.795639
	O8214	O	0.812543	-0.128491	0.829599
	O8215	O	0.865865	-0.460997	0.852542
	O8216	O	0.803370	-0.461329	0.835353
	O8217	O	0.759326	-0.463774	0.853075
	O8218	O	0.803211	-0.293166	0.834674
	O8219	O	0.803382	-0.211541	0.790056
	O8220	O	0.759333	-0.214166	0.772109
	O8221	O	0.821716	-0.294826	0.835139
	O8222	O	0.821852	-0.213213	0.790447
	O8223	O	0.865864	-0.211924	0.772780
	O8224	O	0.759135	-0.295494	0.852284
	O8225	O	0.803194	-0.043390	0.790728
	O8226	O	0.759152	-0.045871	0.772777
	O8227	O	0.865728	-0.043902	0.772347
	O8228	O	0.821693	-0.044979	0.790167
	O8229	O	0.865693	-0.292810	0.853106
	O8230	O	0.750062	-0.128638	0.858050
	O8231	O	0.875023	-0.378711	0.767247
	C8232	C	0.848069	-0.287857	0.845300
	C8233	C	0.852671	-0.377563	0.846193
	C8234	C	0.848253	-0.467909	0.844642
	C8235	C	0.839461	-0.467978	0.842513
	C8236	C	0.834860	-0.378283	0.841641
	C8237	C	0.839276	-0.288031	0.843101
	C8238	C	0.825460	-0.378914	0.836923
	C8239	C	0.862076	-0.377038	0.850749
	C8240	C	0.799586	-0.377358	0.837049
	C8241	C	0.790178	-0.377527	0.841684
	C8242	C	0.785565	-0.287728	0.842464
	C8243	C	0.776772	-0.288589	0.844482
	C8244	C	0.772348	-0.378849	0.846013
	C8245	C	0.776980	-0.468597	0.845334
	C8246	C	0.785774	-0.467727	0.843316
	C8247	C	0.762943	-0.379453	0.850621
	C8248	C	0.799573	-0.127774	0.788422
	C8249	C	0.790174	-0.127975	0.783766
	C8250	C	0.785542	-0.038125	0.782973
	C8251	C	0.776740	-0.038639	0.780842
	C8252	C	0.772341	-0.129238	0.779131
	C8253	C	0.776967	-0.219040	0.779835
	C8254	C	0.785764	-0.218477	0.781991
	C8255	C	0.762945	-0.129878	0.774413
	C8256	C	0.825457	-0.129020	0.788316
	C8257	C	0.834862	-0.128817	0.783623
	C8258	C	0.839458	-0.218772	0.782794
	C8259	C	0.848249	-0.218361	0.780661
	C8260	C	0.852686	-0.128102	0.779211
	C8261	C	0.848098	-0.038140	0.780173
	C8262	C	0.839304	-0.038584	0.782278
	C8263	C	0.862090	-0.127872	0.774562
	H8264	H	0.851704	-0.288468	0.780059
	H8265	H	0.836086	-0.288931	0.783689
	H8266	H	0.851380	-0.217306	0.846319
	H8267	H	0.835801	-0.218235	0.842484
	H8268	H	0.812504	-0.378573	0.777328
	H8269	H	0.812530	-0.128576	0.847887
	H8270	H	0.750083	-0.128423	0.839695
	H8271	H	0.875079	-0.378413	0.785534
	H8272	H	0.789261	-0.288651	0.782390
	H8273	H	0.773652	-0.289454	0.778620
	H8274	H	0.773272	-0.218665	0.844863
	H8275	H	0.788858	-0.217153	0.841337
	H8276	H	0.773244	0.031157	0.780391
	H8277	H	0.788851	0.032305	0.784083
	H8278	H	0.789299	-0.537467	0.842853
	H8279	H	0.773685	-0.539351	0.846384
	H8280	H	0.836146	-0.538636	0.841463
	H8281	H	0.851715	-0.538088	0.845203
	H8282	H	0.835859	0.031465	0.782811
	H8283	H	0.851441	0.032376	0.779108
	Al8284	Al	0.812515	-0.003337	0.812703
	Al8285	Al	0.812543	0.246594	0.812642
	Al8286	Al	0.750011	0.246499	0.750165
	Al8287	Al	0.750001	-0.003736	0.750146
	O8288	O	0.821776	0.036650	0.834835
	O8289	O	0.812479	0.121515	0.795538
	O8290	O	0.812505	0.371799	0.829715
	O8291	O	0.865856	0.038430	0.852537
	O8292	O	0.803315	0.038684	0.835150
	O8293	O	0.759363	0.036266	0.853189
	O8294	O	0.803170	0.207285	0.834456
	O8295	O	0.803388	0.288761	0.789914
	O8296	O	0.759355	0.286177	0.772097
	O8297	O	0.821662	0.204860	0.835273
	O8298	O	0.821829	0.286459	0.790680
	O8299	O	0.865850	0.288214	0.772625
	O8300	O	0.759167	0.204454	0.852499
	O8301	O	0.803211	0.457255	0.790617
	O8302	O	0.759163	0.454728	0.772873
	O8303	O	0.865717	0.456647	0.772380
	O8304	O	0.821655	0.454790	0.790119
	O8305	O	0.865695	0.206627	0.853038
	O8306	O	0.750050	0.371313	0.858059
	O8307	O	0.874982	0.121454	0.767167
	C8308	C	0.848087	0.211555	0.845032
	C8309	C	0.852674	0.121862	0.846053
	C8310	C	0.848239	0.031717	0.844682
	C8311	C	0.839440	0.031325	0.842571
	C8312	C	0.834846	0.121117	0.841651
	C8313	C	0.839284	0.211288	0.842949
	C8314	C	0.825439	0.120797	0.837016
	C8315	C	0.862082	0.122357	0.850724
	C8316	C	0.799562	0.123017	0.836821
	C8317	C	0.790156	0.122498	0.841483
	C8318	C	0.785555	0.212394	0.842247
	C8319	C	0.776753	0.211806	0.844440
	C8320	C	0.772367	0.121171	0.846151
	C8321	C	0.776970	0.031347	0.845271
	C8322	C	0.785765	0.031931	0.843065
	C8323	C	0.762950	0.120506	0.850809
	C8324	C	0.799607	0.372962	0.788334
	C8325	C	0.790187	0.372420	0.783683
	C8326	C	0.785571	0.462331	0.782982
	C8327	C	0.776765	0.461839	0.780829
	C8328	C	0.772368	0.371211	0.779134
	C8329	C	0.776983	0.281311	0.779702
	C8330	C	0.785800	0.281887	0.781850
	C8331	C	0.762951	0.370719	0.774411
	C8332	C	0.825438	0.370904	0.788259
	C8333	C	0.834856	0.370939	0.783722
	C8334	C	0.839470	0.281091	0.782773
	C8335	C	0.848271	0.281468	0.780601
	C8336	C	0.852684	0.371956	0.779153
	C8337	C	0.848074	0.461772	0.779975
	C8338	C	0.839275	0.461222	0.782149
	C8339	C	0.862077	0.372300	0.774490
	H8340	H	0.851750	0.211480	0.780203
	H8341	H	0.836155	0.210434	0.783884
	H8342	H	0.851429	0.281649	0.845871
	H8343	H	0.835836	0.281556	0.842217
	H8344	H	0.812422	0.121584	0.777166
	H8345	H	0.812480	0.371679	0.848006
	H8346	H	0.750095	0.371356	0.839657
	H8347	H	0.874913	0.121400	0.785433
	H8348	H	0.789274	0.211803	0.782224
	H8349	H	0.773680	0.210562	0.778441
	H8350	H	0.773288	0.281982	0.844893
	H8351	H	0.788878	0.282723	0.841157
	H8352	H	0.773303	0.531930	0.780316
	H8353	H	0.788865	0.532859	0.784182
	H8354	H	0.789216	-0.038175	0.842619
	H8355	H	0.773641	-0.039293	0.846390
	H8356	H	0.836093	-0.039061	0.841664
	H8357	H	0.851692	-0.038333	0.845294
	H8358	H	0.835804	0.531330	0.782868
	H8359	H	0.851390	0.532252	0.779089
	Al8360	Al	0.812516	-0.503155	0.937666
	Al8361	Al	0.812534	-0.253610	0.937508
	Al8362	Al	0.750021	-0.253649	0.874961
	Al8363	Al	0.749996	-0.503670	0.875100
	O8364	O	0.821810	-0.463502	0.959732
	O8365	O	0.812527	-0.378637	0.920587
	O8366	O	0.812531	-0.128360	0.954652
	O8367	O	0.865835	-0.461814	0.977734
	O8368	O	0.803360	-0.461139	0.960235
	O8369	O	0.759344	-0.463851	0.978172
	O8370	O	0.803200	-0.292938	0.959632
	O8371	O	0.803357	-0.211686	0.915017
	O8372	O	0.759363	-0.214522	0.897031
	O8373	O	0.821709	-0.295083	0.959880
	O8374	O	0.821806	-0.213773	0.915511
	O8375	O	0.865811	-0.212015	0.897507
	O8376	O	0.759187	-0.295635	0.977576
	O8377	O	0.803190	-0.043235	0.915545
	O8378	O	0.759164	-0.046049	0.897754
	O8379	O	0.865679	-0.043757	0.897141
	O8380	O	0.821655	-0.045491	0.914835
	O8381	O	0.865695	-0.293395	0.978108
	O8382	O	0.750041	-0.128605	0.982977
	O8383	O	0.874994	-0.378112	0.892054
	C8384	C	0.848057	-0.288092	0.970247
	C8385	C	0.852668	-0.377843	0.971216
	C8386	C	0.848250	-0.468247	0.969652
	C8387	C	0.839452	-0.468879	0.967437
	C8388	C	0.834842	-0.379105	0.966685
	C8389	C	0.839279	-0.288735	0.968007
	C8390	C	0.825455	-0.379107	0.961857
	C8391	C	0.862070	-0.377645	0.975886
	C8392	C	0.799581	-0.376908	0.961964
	C8393	C	0.790189	-0.377874	0.966694
	C8394	C	0.785568	-0.288215	0.967397
	C8395	C	0.776771	-0.288766	0.969545
	C8396	C	0.772373	-0.379138	0.971232
	C8397	C	0.776984	-0.468874	0.970226
	C8398	C	0.785788	-0.468184	0.968082
	C8399	C	0.762973	-0.379832	0.975876
	C8400	C	0.799580	-0.127621	0.913292
	C8401	C	0.790175	-0.127745	0.908707
	C8402	C	0.785560	-0.038041	0.907847
	C8403	C	0.776766	-0.038837	0.905697
	C8404	C	0.772370	-0.129407	0.904086
	C8405	C	0.776989	-0.219233	0.904895
	C8406	C	0.785784	-0.218374	0.907075
	C8407	C	0.762962	-0.130074	0.899457
	C8408	C	0.825424	-0.129497	0.913204
	C8409	C	0.834826	-0.129088	0.908574
	C8410	C	0.839416	-0.218854	0.907709
	C8411	C	0.848207	-0.218509	0.905517
	C8412	C	0.852644	-0.128249	0.904130
	C8413	C	0.848044	-0.038333	0.904969
	C8414	C	0.839241	-0.038775	0.907101
	C8415	C	0.862044	-0.127921	0.899339
	H8416	H	0.851668	-0.288812	0.904947
	H8417	H	0.836114	-0.289172	0.908814
	H8418	H	0.851360	-0.217536	0.971364
	H8419	H	0.835806	-0.218700	0.967418
	H8420	H	0.812457	-0.378967	0.902226
	H8421	H	0.812417	-0.128032	0.973011
	H8422	H	0.750147	-0.128323	0.964669
	H8423	H	0.874939	-0.378487	0.910429
	H8424	H	0.789283	-0.288274	0.907463
	H8425	H	0.773673	-0.289730	0.903663
	H8426	H	0.773321	-0.218732	0.970113
	H8427	H	0.788883	-0.217721	0.966381
	H8428	H	0.773292	0.030916	0.905157
	H8429	H	0.788876	0.032458	0.908859
	H8430	H	0.789263	-0.538307	0.967613
	H8431	H	0.773678	-0.539500	0.971368
	H8432	H	0.836120	-0.539202	0.966372
	H8433	H	0.851741	-0.538360	0.970280
	H8434	H	0.835763	0.031213	0.907690
	H8435	H	0.851372	0.032200	0.903933
	Al8436	Al	0.812522	-0.003292	0.937536
	Al8437	Al	0.812541	0.246594	0.937613
	Al8438	Al	0.750048	0.246158	0.875168
	Al8439	Al	0.750009	-0.003674	0.875129
	O8440	O	0.821853	0.036391	0.959459
	O8441	O	0.812513	0.121747	0.920497
	O8442	O	0.812504	0.371475	0.954732
	O8443	O	0.865883	0.038266	0.977709
	O8444	O	0.803367	0.038668	0.960161
	O8445	O	0.759337	0.036526	0.978055
	O8446	O	0.803227	0.207045	0.959728
	O8447	O	0.803398	0.288727	0.914931
	O8448	O	0.759365	0.285974	0.897236
	O8449	O	0.821680	0.204846	0.960178
	O8450	O	0.821837	0.286473	0.915509
	O8451	O	0.865830	0.288545	0.897474
	O8452	O	0.759204	0.205129	0.977803
	O8453	O	0.803210	0.457011	0.915759
	O8454	O	0.759188	0.454449	0.897630
	O8455	O	0.865719	0.456976	0.897109
	O8456	O	0.821686	0.454965	0.915193
	O8457	O	0.865743	0.206781	0.978014
	O8458	O	0.750052	0.371137	0.983126
	O8459	O	0.875040	0.121246	0.892134
	C8460	C	0.848086	0.211613	0.970287
	C8461	C	0.852685	0.121791	0.971190
	C8462	C	0.848258	0.031466	0.969660
	C8463	C	0.839456	0.030991	0.967479
	C8464	C	0.834868	0.121030	0.966619
	C8465	C	0.839276	0.211287	0.968083
	C8466	C	0.825456	0.120607	0.961926
	C8467	C	0.862120	0.122531	0.975807
	C8468	C	0.799605	0.122713	0.962074
	C8469	C	0.790197	0.122434	0.966765
	C8470	C	0.785592	0.212356	0.967608
	C8471	C	0.776795	0.211734	0.969722
	C8472	C	0.772376	0.121221	0.971250
	C8473	C	0.776971	0.031266	0.970262
	C8474	C	0.785771	0.031882	0.968186
	C8475	C	0.762958	0.120971	0.975925
	C8476	C	0.799602	0.372654	0.913336
	C8477	C	0.790190	0.372198	0.908643
	C8478	C	0.785576	0.462014	0.907818
	C8479	C	0.776776	0.461508	0.905637
	C8480	C	0.772367	0.371063	0.904214
	C8481	C	0.776979	0.281184	0.904924
	C8482	C	0.785778	0.281753	0.907060
	C8483	C	0.762956	0.370532	0.899378
	C8484	C	0.825434	0.370865	0.913254
	C8485	C	0.834866	0.370908	0.908604
	C8486	C	0.839474	0.281026	0.907768
	C8487	C	0.848268	0.281869	0.905578
	C8488	C	0.852674	0.372377	0.903961
	C8489	C	0.848065	0.462049	0.904884
	C8490	C	0.839277	0.461295	0.907095
	C8491	C	0.862099	0.372673	0.899316
	H8492	H	0.851746	0.211930	0.905005
	H8493	H	0.836126	0.210728	0.908769
	H8494	H	0.851404	0.281945	0.971327
	H8495	H	0.835822	0.281548	0.967471
	H8496	H	0.812447	0.121996	0.902147
	H8497	H	0.812399	0.370951	0.973076
	H8498	H	0.750221	0.371310	0.964680
	H8499	H	0.875137	0.122039	0.910518
	H8500	H	0.789247	0.211834	0.907649
	H8501	H	0.773656	0.210863	0.903828
	H8502	H	0.773316	0.281487	0.970238
	H8503	H	0.788909	0.282886	0.966526
	H8504	H	0.773303	0.531494	0.905109
	H8505	H	0.788896	0.532425	0.908934
	H8506	H	0.789255	-0.038194	0.967636
	H8507	H	0.773639	-0.039189	0.971237
	H8508	H	0.836151	-0.039601	0.966499
	H8509	H	0.851715	-0.038842	0.970163
	H8510	H	0.835815	0.531458	0.907582
	H8511	H	0.851359	0.532571	0.903799
	Al8512	Al	0.937510	-0.503846	0.062727
	Al8513	Al	0.937506	-0.253620	0.062715
	Al8514	Al	0.875011	-0.253612	0.000258
	Al8515	Al	0.875024	-0.503664	0.000186
	O8516	O	0.946811	-0.464144	0.084813
	O8517	O	0.937514	-0.378859	0.045742
	O8518	O	0.937526	-0.128976	0.079745
	O8519	O	0.990835	-0.461584	0.102552
	O8520	O	0.928333	-0.461990	0.085217
	O8521	O	0.884347	-0.464237	0.103132
	O8522	O	0.928169	-0.293720	0.084768
	O8523	O	0.928335	-0.212164	0.040044
	O8524	O	0.884298	-0.214063	0.022426
	O8525	O	0.946662	-0.295803	0.085302
	O8526	O	0.946857	-0.214037	0.040781
	O8527	O	0.990876	-0.211773	0.022739
	O8528	O	0.884178	-0.295963	0.102725
	O8529	O	0.928196	-0.043937	0.040792
	O8530	O	0.884143	-0.045534	0.022890
	O8531	O	0.990660	-0.043244	0.022139
	O8532	O	0.946665	-0.045534	0.040082
	O8533	O	0.990687	-0.293269	0.103120
	O8534	O	0.874990	-0.128693	0.108014
	O8535	O	1.000014	-0.378239	0.016985
	C8536	C	0.973027	-0.288028	0.095391
	C8537	C	0.977652	-0.377849	0.096134
	C8538	C	0.973242	-0.468190	0.094444
	C8539	C	0.964452	-0.468889	0.092265
	C8540	C	0.959828	-0.379125	0.091593
	C8541	C	0.964225	-0.288627	0.093192
	C8542	C	0.950432	-0.379909	0.087043
	C8543	C	0.987055	-0.377409	0.100805
	C8544	C	0.924548	-0.377985	0.087032
	C8545	C	0.915166	-0.378270	0.091760
	C8546	C	0.910563	-0.288470	0.092464
	C8547	C	0.901768	-0.288959	0.094566
	C8548	C	0.897354	-0.379362	0.096130
	C8549	C	0.901966	-0.469207	0.095408
	C8550	C	0.910760	-0.468643	0.093304
	C8551	C	0.887944	-0.379935	0.100956
	C8552	C	0.924567	-0.128010	0.038375
	C8553	C	0.915157	-0.128144	0.033711
	C8554	C	0.910544	-0.038266	0.032723
	C8555	C	0.901745	-0.038770	0.030605
	C8556	C	0.897329	-0.129342	0.029205
	C8557	C	0.901949	-0.219151	0.030026
	C8558	C	0.910748	-0.218661	0.032158
	C8559	C	0.887912	-0.129667	0.024595
	C8560	C	0.950436	-0.129659	0.038357
	C8561	C	0.959857	-0.129142	0.033661
	C8562	C	0.964472	-0.219268	0.032775
	C8563	C	0.973272	-0.218821	0.030650
	C8564	C	0.977675	-0.128230	0.029172
	C8565	C	0.973064	-0.038144	0.029823
	C8566	C	0.964266	-0.038567	0.031970
	C8567	C	0.987078	-0.127769	0.024523
	H8568	H	0.976748	-0.288931	0.030122
	H8569	H	0.961151	-0.289864	0.033810
	H8570	H	0.976328	-0.217479	0.096540
	H8571	H	0.960721	-0.218610	0.092728
	H8572	H	0.937594	-0.378702	0.027463
	H8573	H	0.937530	-0.128993	0.098147
	H8574	H	0.875000	-0.129159	0.089652
	H8575	H	1.000118	-0.377758	0.035374
	H8576	H	0.914230	-0.288569	0.032784
	H8577	H	0.898617	-0.289521	0.029049
	H8578	H	0.898301	-0.218863	0.094944
	H8579	H	0.913898	-0.218084	0.091273
	H8580	H	0.898273	0.031073	0.030134
	H8581	H	0.913856	0.032228	0.033814
	H8582	H	0.914222	-0.538982	0.092756
	H8583	H	0.898626	-0.539368	0.096484
	H8584	H	0.961143	-0.539624	0.091168
	H8585	H	0.976742	-0.538274	0.094901
	H8586	H	0.960788	0.031486	0.032430
	H8587	H	0.976369	0.032338	0.028662
	Al8588	Al	0.937530	-0.004165	0.062793
	Al8589	Al	0.937496	0.246139	0.062744
	Al8590	Al	0.875003	0.246513	0.000186
	Al8591	Al	0.875044	-0.003774	0.000202
	O8592	O	0.946857	0.035834	0.084718
	O8593	O	0.937505	0.120800	0.045724
	O8594	O	0.937526	0.371269	0.079772
	O8595	O	0.990862	0.038530	0.102432
	O8596	O	0.928394	0.037942	0.085414
	O8597	O	0.884338	0.035965	0.103166
	O8598	O	0.928218	0.206270	0.084929
	O8599	O	0.928363	0.287940	0.040217
	O8600	O	0.884343	0.286501	0.022163
	O8601	O	0.946681	0.204241	0.085214
	O8602	O	0.946811	0.286321	0.040575
	O8603	O	0.990787	0.288111	0.022534
	O8604	O	0.884146	0.204152	0.102643
	O8605	O	0.928232	0.456226	0.040584
	O8606	O	0.884177	0.454655	0.022761
	O8607	O	0.990687	0.456589	0.022094
	O8608	O	0.946699	0.454657	0.040312
	O8609	O	0.990694	0.206767	0.103139
	O8610	O	0.875028	0.371017	0.108156
	O8611	O	1.000010	0.121713	0.017156
	C8612	C	0.973059	0.211923	0.095405
	C8613	C	0.977682	0.122146	0.096143
	C8614	C	0.973277	0.031603	0.094437
	C8615	C	0.964484	0.030905	0.092285
	C8616	C	0.959860	0.120679	0.091658
	C8617	C	0.964262	0.211259	0.093227
	C8618	C	0.950460	0.120159	0.086978
	C8619	C	0.987089	0.122466	0.100769
	C8620	C	0.924596	0.121862	0.087115
	C8621	C	0.915198	0.121589	0.091626
	C8622	C	0.910591	0.211425	0.092352
	C8623	C	0.901789	0.210988	0.094495
	C8624	C	0.897363	0.120852	0.096178
	C8625	C	0.901977	0.031169	0.095326
	C8626	C	0.910770	0.031467	0.093205
	C8627	C	0.887966	0.120414	0.100898
	C8628	C	0.924605	0.372060	0.038268
	C8629	C	0.915197	0.372003	0.033591
	C8630	C	0.910588	0.461789	0.032742
	C8631	C	0.901798	0.461122	0.030625
	C8632	C	0.897381	0.370831	0.029034
	C8633	C	0.901982	0.280921	0.029932
	C8634	C	0.910775	0.281704	0.032035
	C8635	C	0.887961	0.370672	0.024492
	C8636	C	0.950432	0.370588	0.038441
	C8637	C	0.959852	0.370745	0.033652
	C8638	C	0.964485	0.280880	0.032975
	C8639	C	0.973262	0.281443	0.030720
	C8640	C	0.977661	0.372095	0.029137
	C8641	C	0.973034	0.461954	0.029757
	C8642	C	0.964247	0.461314	0.031949
	C8643	C	0.987074	0.372428	0.024295
	H8644	H	0.976742	0.211459	0.030225
	H8645	H	0.961154	0.210532	0.034158
	H8646	H	0.976368	0.282182	0.096568
	H8647	H	0.960809	0.281277	0.092812
	H8648	H	0.937651	0.120915	0.027291
	H8649	H	0.937565	0.371207	0.098099
	H8650	H	0.874988	0.371491	0.089880
	H8651	H	0.999948	0.122480	0.035438
	H8652	H	0.914269	0.211905	0.032538
	H8653	H	0.898663	0.210645	0.028969
	H8654	H	0.898309	0.280965	0.094878
	H8655	H	0.913917	0.281789	0.091197
	H8656	H	0.898319	0.530954	0.030148
	H8657	H	0.913902	0.532393	0.033800
	H8658	H	0.914231	-0.038818	0.092724
	H8659	H	0.898669	-0.039487	0.096312
	H8660	H	0.961158	-0.039537	0.091141
	H8661	H	0.976757	-0.038717	0.094899
	H8662	H	0.960769	0.531193	0.032437
	H8663	H	0.976369	0.532290	0.028534
	Al8664	Al	0.937509	-0.503657	0.187535
	Al8665	Al	0.937502	-0.253830	0.187607
	Al8666	Al	0.874985	-0.253786	0.125129
	Al8667	Al	0.875017	-0.503780	0.125191
	O8668	O	0.946852	-0.464138	0.209560
	O8669	O	0.937488	-0.378716	0.170458
	O8670	O	0.937512	-0.128756	0.204714
	O8671	O	0.990897	-0.460676	0.227316
	O8672	O	0.928329	-0.462132	0.210049
	O8673	O	0.884310	-0.463920	0.228039
	O8674	O	0.928190	-0.293725	0.209574
	O8675	O	0.928327	-0.212240	0.165125
	O8676	O	0.884318	-0.213995	0.147121
	O8677	O	0.946678	-0.295810	0.210116
	O8678	O	0.946803	-0.213642	0.165601
	O8679	O	0.990849	-0.211359	0.147495
	O8680	O	0.884168	-0.295525	0.227581
	O8681	O	0.928230	-0.043820	0.165507
	O8682	O	0.884185	-0.045485	0.147648
	O8683	O	0.990685	-0.043048	0.147170
	O8684	O	0.946709	-0.045219	0.165177
	O8685	O	0.990674	-0.292475	0.227991
	O8686	O	0.874980	-0.128727	0.232886
	O8687	O	0.999989	-0.378032	0.142056
	C8688	C	0.973037	-0.287970	0.220444
	C8689	C	0.977667	-0.377617	0.221178
	C8690	C	0.973250	-0.468229	0.219576
	C8691	C	0.964464	-0.468997	0.217419
	C8692	C	0.959845	-0.379221	0.216636
	C8693	C	0.964249	-0.288588	0.218280
	C8694	C	0.950445	-0.379800	0.211965
	C8695	C	0.987096	-0.377106	0.225693
	C8696	C	0.924571	-0.378022	0.211792
	C8697	C	0.915161	-0.378261	0.216584
	C8698	C	0.910556	-0.288376	0.217314
	C8699	C	0.901753	-0.288820	0.219530
	C8700	C	0.897332	-0.379124	0.221100
	C8701	C	0.901944	-0.468974	0.220405
	C8702	C	0.910741	-0.468612	0.218175
	C8703	C	0.887922	-0.379640	0.225933
	C8704	C	0.924566	-0.127930	0.163434
	C8705	C	0.915157	-0.128274	0.158650
	C8706	C	0.910543	-0.038361	0.157858
	C8707	C	0.901751	-0.038702	0.155690
	C8708	C	0.897335	-0.129206	0.154068
	C8709	C	0.901932	-0.219113	0.154895
	C8710	C	0.910729	-0.218648	0.157091
	C8711	C	0.887944	-0.129703	0.149470
	C8712	C	0.950437	-0.129473	0.163318
	C8713	C	0.959856	-0.129038	0.158703
	C8714	C	0.964444	-0.218884	0.157745
	C8715	C	0.973241	-0.218247	0.155607
	C8716	C	0.977662	-0.127798	0.154126
	C8717	C	0.973051	-0.037860	0.154757
	C8718	C	0.964252	-0.038530	0.156911
	C8719	C	0.987071	-0.127358	0.149436
	H8720	H	0.976701	-0.288282	0.155185
	H8721	H	0.961126	-0.289536	0.158863
	H8722	H	0.976370	-0.217631	0.221503
	H8723	H	0.960775	-0.218572	0.217804
	H8724	H	0.937344	-0.379008	0.152107
	H8725	H	0.937533	-0.128385	0.223005
	H8726	H	0.875023	-0.129254	0.214589
	H8727	H	0.999920	-0.378286	0.160394
	H8728	H	0.914200	-0.288759	0.157375
	H8729	H	0.898604	-0.289375	0.153526
	H8730	H	0.898287	-0.218550	0.219948
	H8731	H	0.913887	-0.217886	0.215944
	H8732	H	0.898296	0.031181	0.154946
	H8733	H	0.913888	0.032155	0.158709
	H8734	H	0.914162	-0.538776	0.217551
	H8735	H	0.898609	-0.539080	0.221517
	H8736	H	0.961134	-0.539369	0.216278
	H8737	H	0.976731	-0.538222	0.219956
	H8738	H	0.960761	0.031459	0.157316
	H8739	H	0.976367	0.032586	0.153625
	Al8740	Al	0.937516	-0.003872	0.187593
	Al8741	Al	0.937519	0.246168	0.187505
	Al8742	Al	0.875013	0.246295	0.125073
	Al8743	Al	0.875019	-0.003639	0.125033
	O8744	O	0.946853	0.036238	0.209668
	O8745	O	0.937488	0.121226	0.170449
	O8746	O	0.937535	0.371387	0.204516
	O8747	O	0.990879	0.039279	0.227284
	O8748	O	0.928325	0.038118	0.210113
	O8749	O	0.884300	0.036809	0.227979
	O8750	O	0.928210	0.206552	0.209678
	O8751	O	0.928325	0.287646	0.165085
	O8752	O	0.884294	0.286037	0.147182
	O8753	O	0.946670	0.204630	0.210024
	O8754	O	0.946822	0.286551	0.165593
	O8755	O	0.990844	0.288522	0.147827
	O8756	O	0.884170	0.204880	0.227609
	O8757	O	0.928201	0.456052	0.165353
	O8758	O	0.884159	0.454537	0.147865
	O8759	O	0.990685	0.456843	0.147109
	O8760	O	0.946654	0.454864	0.164912
	O8761	O	0.990644	0.207628	0.228322
	O8762	O	0.875018	0.371306	0.233141
	O8763	O	1.000010	0.121774	0.142146
	C8764	C	0.973050	0.212160	0.220373
	C8765	C	0.977664	0.122345	0.221146
	C8766	C	0.973260	0.032048	0.219533
	C8767	C	0.964466	0.031393	0.217382
	C8768	C	0.959843	0.121252	0.216687
	C8769	C	0.964259	0.211599	0.218136
	C8770	C	0.950452	0.120570	0.211821
	C8771	C	0.987084	0.123347	0.225837
	C8772	C	0.924574	0.122229	0.211986
	C8773	C	0.915163	0.121949	0.216663
	C8774	C	0.910570	0.211870	0.217446
	C8775	C	0.901785	0.211557	0.219535
	C8776	C	0.897352	0.121308	0.221127
	C8777	C	0.901943	0.031337	0.220259
	C8778	C	0.910750	0.031590	0.218164
	C8779	C	0.887938	0.120949	0.225690
	C8780	C	0.924565	0.371876	0.163172
	C8781	C	0.915158	0.371518	0.158582
	C8782	C	0.910549	0.461411	0.157701
	C8783	C	0.901747	0.461080	0.155621
	C8784	C	0.897343	0.370620	0.154069
	C8785	C	0.901954	0.280831	0.154880
	C8786	C	0.910751	0.281104	0.156958
	C8787	C	0.887920	0.370281	0.149505
	C8788	C	0.950444	0.370737	0.163270
	C8789	C	0.959854	0.370922	0.158566
	C8790	C	0.964462	0.280981	0.157672
	C8791	C	0.973252	0.281671	0.155548
	C8792	C	0.977669	0.372126	0.154083
	C8793	C	0.973056	0.461912	0.154928
	C8794	C	0.964262	0.461293	0.157032
	C8795	C	0.987084	0.372590	0.149496
	H8796	H	0.976725	0.211446	0.154899
	H8797	H	0.961117	0.210512	0.158596
	H8798	H	0.976344	0.282599	0.221613
	H8799	H	0.960761	0.281525	0.217625
	H8800	H	0.937415	0.121392	0.152085
	H8801	H	0.937611	0.371269	0.222896
	H8802	H	0.875144	0.370654	0.214775
	H8803	H	0.999886	0.121808	0.160514
	H8804	H	0.914228	0.211011	0.157452
	H8805	H	0.898638	0.210225	0.153867
	H8806	H	0.898326	0.281891	0.220010
	H8807	H	0.913883	0.282255	0.216481
	H8808	H	0.898262	0.531095	0.155234
	H8809	H	0.913867	0.531892	0.158721
	H8810	H	0.914237	-0.038286	0.217788
	H8811	H	0.898608	-0.039012	0.221324
	H8812	H	0.961159	-0.039198	0.216279
	H8813	H	0.976764	-0.037945	0.220042
	H8814	H	0.960802	0.531488	0.157515
	H8815	H	0.976393	0.532188	0.153790
	Al8816	Al	0.937476	-0.503659	0.312557
	Al8817	Al	0.937500	-0.253500	0.312629
	Al8818	Al	0.874998	-0.253474	0.250044
	Al8819	Al	0.874973	-0.503649	0.250142
	O8820	O	0.946773	-0.463684	0.334854
	O8821	O	0.937450	-0.378699	0.295586
	O8822	O	0.937478	-0.128775	0.329706
	O8823	O	0.990839	-0.461081	0.352500
	O8824	O	0.928299	-0.462201	0.335126
	O8825	O	0.884307	-0.463821	0.352961
	O8826	O	0.928180	-0.293930	0.334690
	O8827	O	0.928329	-0.211787	0.290188
	O8828	O	0.884323	-0.213657	0.272028
	O8829	O	0.946625	-0.295514	0.335198
	O8830	O	0.946773	-0.213735	0.290423
	O8831	O	0.990821	-0.210627	0.272720
	O8832	O	0.884195	-0.295469	0.352481
	O8833	O	0.928179	-0.043574	0.290560
	O8834	O	0.884177	-0.045315	0.272462
	O8835	O	0.990624	-0.042403	0.272001
	O8836	O	0.946603	-0.045645	0.289991
	O8837	O	0.990666	-0.292839	0.353067
	O8838	O	0.874991	-0.128595	0.358015
	O8839	O	1.000004	-0.377820	0.267135
	C8840	C	0.973031	-0.287872	0.345207
	C8841	C	0.977655	-0.377546	0.345914
	C8842	C	0.973247	-0.467917	0.344407
	C8843	C	0.964440	-0.468540	0.342324
	C8844	C	0.959821	-0.378901	0.341542
	C8845	C	0.964230	-0.288515	0.343112
	C8846	C	0.950416	-0.379514	0.336972
	C8847	C	0.987037	-0.377128	0.350709
	C8848	C	0.924563	-0.378206	0.336929
	C8849	C	0.915151	-0.378568	0.341535
	C8850	C	0.910556	-0.288571	0.342453
	C8851	C	0.901775	-0.288739	0.344587
	C8852	C	0.897345	-0.379140	0.345984
	C8853	C	0.901946	-0.469106	0.345271
	C8854	C	0.910728	-0.468828	0.343107
	C8855	C	0.887943	-0.379682	0.350664
	C8856	C	0.924545	-0.127734	0.288366
	C8857	C	0.915157	-0.127976	0.283707
	C8858	C	0.910545	-0.038198	0.282876
	C8859	C	0.901746	-0.038730	0.280638
	C8860	C	0.897331	-0.129172	0.279043
	C8861	C	0.901947	-0.218974	0.279839
	C8862	C	0.910740	-0.218335	0.282058
	C8863	C	0.887941	-0.129408	0.274308
	C8864	C	0.950393	-0.129490	0.288211
	C8865	C	0.959803	-0.128659	0.283602
	C8866	C	0.964437	-0.218444	0.282719
	C8867	C	0.973219	-0.217690	0.280564
	C8868	C	0.977637	-0.127340	0.279128
	C8869	C	0.972993	-0.037596	0.279933
	C8870	C	0.964215	-0.038289	0.282108
	C8871	C	0.987020	-0.126678	0.274388
	H8872	H	0.976717	-0.287644	0.279975
	H8873	H	0.961140	-0.289161	0.283812
	H8874	H	0.976341	-0.217430	0.346215
	H8875	H	0.960739	-0.218446	0.342577
	H8876	H	0.937281	-0.378765	0.277131
	H8877	H	0.937435	-0.128690	0.348019
	H8878	H	0.875058	-0.128287	0.339655
	H8879	H	1.000108	-0.377958	0.285445
	H8880	H	0.914197	-0.288634	0.282492
	H8881	H	0.898634	-0.289219	0.278711
	H8882	H	0.898276	-0.218869	0.345116
	H8883	H	0.913896	-0.218218	0.341444
	H8884	H	0.898288	0.031289	0.280138
	H8885	H	0.913864	0.032137	0.284062
	H8886	H	0.914197	-0.538789	0.342626
	H8887	H	0.898635	-0.539541	0.346344
	H8888	H	0.961126	-0.539137	0.341194
	H8889	H	0.976723	-0.537836	0.344733
	H8890	H	0.960717	0.031641	0.282698
	H8891	H	0.976297	0.032861	0.278955
	Al8892	Al	0.937464	-0.003653	0.312590
	Al8893	Al	0.937494	0.246254	0.312553
	Al8894	Al	0.875003	0.246327	0.250182
	Al8895	Al	0.874980	-0.003361	0.249931
	O8896	O	0.946793	0.036333	0.334662
	O8897	O	0.937460	0.121270	0.295520
	O8898	O	0.937501	0.371178	0.329582
	O8899	O	0.990859	0.039132	0.352429
	O8900	O	0.928329	0.037724	0.335004
	O8901	O	0.884283	0.036445	0.352885
	O8902	O	0.928158	0.206214	0.334635
	O8903	O	0.928308	0.287906	0.290183
	O8904	O	0.884295	0.286483	0.272349
	O8905	O	0.946694	0.204654	0.334985
	O8906	O	0.946822	0.285918	0.290422
	O8907	O	0.990874	0.288956	0.272796
	O8908	O	0.884179	0.204803	0.352565
	O8909	O	0.928217	0.456217	0.290345
	O8910	O	0.884190	0.454873	0.272483
	O8911	O	0.990670	0.457004	0.271902
	O8912	O	0.946653	0.454580	0.290157
	O8913	O	0.990643	0.207217	0.352902
	O8914	O	0.875034	0.371587	0.357975
	O8915	O	0.999966	0.122077	0.267082
	C8916	C	0.973026	0.212097	0.345184
	C8917	C	0.977641	0.122146	0.346084
	C8918	C	0.973247	0.031536	0.344530
	C8919	C	0.964450	0.030977	0.342533
	C8920	C	0.959845	0.120787	0.341587
	C8921	C	0.964235	0.211432	0.343095
	C8922	C	0.950432	0.120623	0.336913
	C8923	C	0.987052	0.123084	0.350643
	C8924	C	0.924537	0.121982	0.336851
	C8925	C	0.915154	0.121689	0.341658
	C8926	C	0.910547	0.211458	0.342399
	C8927	C	0.901747	0.210959	0.344514
	C8928	C	0.897337	0.120562	0.346153
	C8929	C	0.901931	0.030772	0.345379
	C8930	C	0.910727	0.031277	0.343213
	C8931	C	0.887937	0.120614	0.350737
	C8932	C	0.924582	0.371935	0.288178
	C8933	C	0.915163	0.371643	0.283519
	C8934	C	0.910560	0.461514	0.282771
	C8935	C	0.901761	0.461043	0.280580
	C8936	C	0.897347	0.370743	0.279005
	C8937	C	0.901945	0.280603	0.279853
	C8938	C	0.910746	0.281155	0.281992
	C8939	C	0.887927	0.370779	0.274491
	C8940	C	0.950441	0.370283	0.288316
	C8941	C	0.959835	0.370937	0.283723
	C8942	C	0.964448	0.281268	0.282870
	C8943	C	0.973257	0.282032	0.280652
	C8944	C	0.977656	0.372527	0.279083
	C8945	C	0.973043	0.462306	0.279971
	C8946	C	0.964232	0.461498	0.282187
	C8947	C	0.987065	0.372895	0.274451
	H8948	H	0.976706	0.211763	0.280015
	H8949	H	0.961125	0.210734	0.283888
	H8950	H	0.976338	0.282577	0.346089
	H8951	H	0.960749	0.281520	0.342439
	H8952	H	0.937478	0.120654	0.277119
	H8953	H	0.937446	0.371294	0.347906
	H8954	H	0.875152	0.371556	0.339559
	H8955	H	0.999980	0.122604	0.285363
	H8956	H	0.914251	0.211325	0.282412
	H8957	H	0.898647	0.210247	0.278723
	H8958	H	0.898320	0.281276	0.345119
	H8959	H	0.913897	0.281782	0.341354
	H8960	H	0.898280	0.531034	0.279995
	H8961	H	0.913850	0.531973	0.283824
	H8962	H	0.914182	-0.038949	0.342852
	H8963	H	0.898582	-0.039459	0.346558
	H8964	H	0.961098	-0.039494	0.341511
	H8965	H	0.976752	-0.038405	0.344905
	H8966	H	0.960779	0.531676	0.282575
	H8967	H	0.976370	0.532899	0.278815
	Al8968	Al	0.937489	-0.503900	0.437497
	Al8969	Al	0.937503	-0.253564	0.437522
	Al8970	Al	0.875026	-0.253760	0.374979
	Al8971	Al	0.874994	-0.503683	0.375046
	O8972	O	0.946863	-0.464019	0.459491
	O8973	O	0.937523	-0.378709	0.420441
	O8974	O	0.937475	-0.128849	0.454593
	O8975	O	0.990876	-0.461133	0.477546
	O8976	O	0.928319	-0.462151	0.459970
	O8977	O	0.884303	-0.463828	0.477865
	O8978	O	0.928233	-0.293628	0.459806
	O8979	O	0.928323	-0.212333	0.415002
	O8980	O	0.884319	-0.213885	0.397159
	O8981	O	0.946647	-0.295520	0.460098
	O8982	O	0.946814	-0.213632	0.415464
	O8983	O	0.990863	-0.210899	0.397811
	O8984	O	0.884214	-0.295151	0.477674
	O8985	O	0.928190	-0.043868	0.415433
	O8986	O	0.884168	-0.045478	0.397586
	O8987	O	0.990655	-0.042841	0.397016
	O8988	O	0.946650	-0.045380	0.415009
	O8989	O	0.990678	-0.292762	0.478066
	O8990	O	0.874997	-0.128442	0.483084
	O8991	O	0.999998	-0.377829	0.392116
	C8992	C	0.973066	-0.288088	0.470374
	C8993	C	0.977682	-0.377923	0.471212
	C8994	C	0.973264	-0.468521	0.469635
	C8995	C	0.964465	-0.469145	0.467454
	C8996	C	0.959848	-0.379171	0.466657
	C8997	C	0.964276	-0.288795	0.468212
	C8998	C	0.950440	-0.379556	0.461795
	C8999	C	0.987092	-0.377275	0.475860
	C9000	C	0.924584	-0.377940	0.461908
	C9001	C	0.915177	-0.378236	0.466639
	C9002	C	0.910561	-0.288456	0.467437
	C9003	C	0.901777	-0.289024	0.469595
	C9004	C	0.897353	-0.379479	0.471102
	C9005	C	0.901963	-0.469405	0.470342
	C9006	C	0.910754	-0.468748	0.468230
	C9007	C	0.887943	-0.379480	0.475695
	C9008	C	0.924582	-0.128181	0.413089
	C9009	C	0.915183	-0.128504	0.408540
	C9010	C	0.910600	-0.038494	0.407751
	C9011	C	0.901791	-0.039160	0.405563
	C9012	C	0.897352	-0.129483	0.404014
	C9013	C	0.901956	-0.219514	0.404773
	C9014	C	0.910765	-0.218888	0.406979
	C9015	C	0.887941	-0.129609	0.399360
	C9016	C	0.950421	-0.129388	0.413186
	C9017	C	0.959840	-0.128985	0.408555
	C9018	C	0.964458	-0.218777	0.407798
	C9019	C	0.973254	-0.218366	0.405677
	C9020	C	0.977655	-0.127927	0.404022
	C9021	C	0.973043	-0.038163	0.404914
	C9022	C	0.964246	-0.038490	0.407063
	C9023	C	0.987068	-0.127100	0.399415
	H9024	H	0.976720	-0.288453	0.405220
	H9025	H	0.961151	-0.289494	0.408913
	H9026	H	0.976404	-0.217571	0.471429
	H9027	H	0.960811	-0.218621	0.467589
	H9028	H	0.937550	-0.378595	0.402109
	H9029	H	0.937394	-0.129157	0.472979
	H9030	H	0.874927	-0.128377	0.464794
	H9031	H	0.999933	-0.377932	0.410483
	H9032	H	0.914221	-0.289023	0.407663
	H9033	H	0.898645	-0.289959	0.403908
	H9034	H	0.898277	-0.219058	0.470155
	H9035	H	0.913886	-0.218170	0.466386
	H9036	H	0.898330	0.031159	0.405320
	H9037	H	0.913933	0.032156	0.409102
	H9038	H	0.914238	-0.538569	0.467753
	H9039	H	0.898652	-0.539837	0.471460
	H9040	H	0.961127	-0.539587	0.466310
	H9041	H	0.976719	-0.538498	0.470088
	H9042	H	0.960768	0.031423	0.407515
	H9043	H	0.976357	0.032294	0.403923
	Al9044	Al	0.937483	-0.003853	0.437673
	Al9045	Al	0.937496	0.246274	0.437622
	Al9046	Al	0.875003	0.246461	0.375100
	Al9047	Al	0.874978	-0.003792	0.375008
	O9048	O	0.946788	0.036254	0.459769
	O9049	O	0.937523	0.120944	0.420549
	O9050	O	0.937491	0.371313	0.454633
	O9051	O	0.990843	0.039149	0.477397
	O9052	O	0.928355	0.038006	0.460347
	O9053	O	0.884327	0.036294	0.477967
	O9054	O	0.928120	0.206277	0.459416
	O9055	O	0.928337	0.287939	0.415089
	O9056	O	0.884342	0.286067	0.397087
	O9057	O	0.946663	0.204853	0.460116
	O9058	O	0.946815	0.286124	0.415541
	O9059	O	0.990816	0.288854	0.397638
	O9060	O	0.884146	0.204523	0.477294
	O9061	O	0.928180	0.456297	0.415599
	O9062	O	0.884203	0.454241	0.397556
	O9063	O	0.990666	0.457200	0.397091
	O9064	O	0.946645	0.454550	0.415013
	O9065	O	0.990653	0.207397	0.477948
	O9066	O	0.875021	0.371335	0.483007
	O9067	O	0.999977	0.121792	0.392013
	C9068	C	0.973018	0.212261	0.470310
	C9069	C	0.977626	0.122380	0.471134
	C9070	C	0.973219	0.031900	0.469420
	C9071	C	0.964426	0.031319	0.467346
	C9072	C	0.959816	0.121281	0.466636
	C9073	C	0.964212	0.211727	0.468163
	C9074	C	0.950413	0.120717	0.461989
	C9075	C	0.987038	0.123159	0.475667
	C9076	C	0.924556	0.121996	0.461906
	C9077	C	0.915161	0.121483	0.466514
	C9078	C	0.910570	0.211330	0.467319
	C9079	C	0.901770	0.211104	0.469550
	C9080	C	0.897333	0.120848	0.470990
	C9081	C	0.901928	0.030813	0.470277
	C9082	C	0.910729	0.031180	0.468100
	C9083	C	0.887941	0.120612	0.475651
	C9084	C	0.924570	0.372061	0.413328
	C9085	C	0.915168	0.371718	0.408615
	C9086	C	0.910548	0.461426	0.407856
	C9087	C	0.901765	0.460925	0.405586
	C9088	C	0.897370	0.370542	0.404023
	C9089	C	0.901975	0.280741	0.404936
	C9090	C	0.910774	0.281223	0.407114
	C9091	C	0.887953	0.370310	0.399361
	C9092	C	0.950408	0.370440	0.413256
	C9093	C	0.959809	0.370846	0.408505
	C9094	C	0.964433	0.281047	0.407737
	C9095	C	0.973223	0.281938	0.405517
	C9096	C	0.977620	0.372582	0.403896
	C9097	C	0.972999	0.462341	0.404699
	C9098	C	0.964217	0.461364	0.406891
	C9099	C	0.987045	0.372854	0.399299
	H9100	H	0.976725	0.211994	0.404946
	H9101	H	0.961114	0.210403	0.408831
	H9102	H	0.976309	0.282810	0.471398
	H9103	H	0.960719	0.281591	0.467766
	H9104	H	0.937581	0.121150	0.402277
	H9105	H	0.937536	0.371539	0.472832
	H9106	H	0.875076	0.371128	0.464637
	H9107	H	1.000019	0.121779	0.410302
	H9108	H	0.914262	0.211334	0.407594
	H9109	H	0.898662	0.210331	0.403845
	H9110	H	0.898340	0.281141	0.470056
	H9111	H	0.913895	0.281722	0.466172
	H9112	H	0.898286	0.531016	0.405021
	H9113	H	0.913850	0.532082	0.408947
	H9114	H	0.914175	-0.039112	0.467435
	H9115	H	0.898579	-0.039433	0.471330
	H9116	H	0.961129	-0.039246	0.466298
	H9117	H	0.976721	-0.037925	0.469940
	H9118	H	0.960721	0.531469	0.407447
	H9119	H	0.976312	0.532660	0.403553
	Al9120	Al	0.937490	-0.503166	0.562620
	Al9121	Al	0.937519	-0.253552	0.562532
	Al9122	Al	0.875050	-0.253572	0.500076
	Al9123	Al	0.875015	-0.503664	0.499951
	O9124	O	0.946848	-0.463498	0.584633
	O9125	O	0.937523	-0.378499	0.545520
	O9126	O	0.937526	-0.128288	0.579607
	O9127	O	0.990841	-0.460930	0.602412
	O9128	O	0.928386	-0.461332	0.585418
	O9129	O	0.884337	-0.463517	0.603140
	O9130	O	0.928174	-0.293047	0.584548
	O9131	O	0.928361	-0.211547	0.539967
	O9132	O	0.884295	-0.213677	0.522376
	O9133	O	0.946626	-0.295224	0.585256
	O9134	O	0.946833	-0.213608	0.540458
	O9135	O	0.990829	-0.210819	0.522674
	O9136	O	0.884200	-0.294993	0.602484
	O9137	O	0.928207	-0.043093	0.540423
	O9138	O	0.884192	-0.045175	0.522562
	O9139	O	0.990683	-0.042437	0.522086
	O9140	O	0.946681	-0.045216	0.540046
	O9141	O	0.990651	-0.292768	0.603153
	O9142	O	0.875049	-0.128381	0.608047
	O9143	O	1.000011	-0.378161	0.517125
	C9144	C	0.973043	-0.287316	0.595117
	C9145	C	0.977648	-0.377133	0.596071
	C9146	C	0.973242	-0.467669	0.594520
	C9147	C	0.964447	-0.468471	0.592389
	C9148	C	0.959834	-0.378717	0.591578
	C9149	C	0.964245	-0.288204	0.592986
	C9150	C	0.950430	-0.379151	0.586943
	C9151	C	0.987051	-0.377052	0.600755
	C9152	C	0.924571	-0.377417	0.587017
	C9153	C	0.915161	-0.377748	0.591550
	C9154	C	0.910554	-0.287867	0.592412
	C9155	C	0.901748	-0.288407	0.594549
	C9156	C	0.897344	-0.378852	0.595944
	C9157	C	0.901951	-0.468758	0.595187
	C9158	C	0.910757	-0.468191	0.593045
	C9159	C	0.887952	-0.379157	0.600711
	C9160	C	0.924585	-0.127560	0.538144
	C9161	C	0.915170	-0.127770	0.533629
	C9162	C	0.910559	-0.037963	0.532745
	C9163	C	0.901764	-0.038439	0.530603
	C9164	C	0.897340	-0.128800	0.529153
	C9165	C	0.901944	-0.218605	0.530062
	C9166	C	0.910746	-0.218203	0.532210
	C9167	C	0.887930	-0.129518	0.524551
	C9168	C	0.950431	-0.129393	0.538212
	C9169	C	0.959838	-0.128656	0.533600
	C9170	C	0.964452	-0.218458	0.532660
	C9171	C	0.973266	-0.217650	0.530538
	C9172	C	0.977663	-0.126916	0.529053
	C9173	C	0.973032	-0.037205	0.529959
	C9174	C	0.964240	-0.037977	0.532098
	C9175	C	0.987082	-0.126753	0.524403
	H9176	H	0.976762	-0.287613	0.530056
	H9177	H	0.961126	-0.288706	0.533651
	H9178	H	0.976362	-0.216842	0.596235
	H9179	H	0.960762	-0.218290	0.592522
	H9180	H	0.937634	-0.378646	0.527258
	H9181	H	0.937481	-0.128470	0.597975
	H9182	H	0.875140	-0.128374	0.589628
	H9183	H	1.000071	-0.378543	0.535438
	H9184	H	0.914218	-0.288368	0.532794
	H9185	H	0.898598	-0.288870	0.529107
	H9186	H	0.898283	-0.218517	0.595246
	H9187	H	0.913849	-0.217483	0.591461
	H9188	H	0.898299	0.031702	0.530069
	H9189	H	0.913904	0.032405	0.533767
	H9190	H	0.914234	-0.538255	0.592590
	H9191	H	0.898652	-0.539280	0.596273
	H9192	H	0.961146	-0.539173	0.591418
	H9193	H	0.976708	-0.537725	0.595133
	H9194	H	0.960798	0.032116	0.532700
	H9195	H	0.976347	0.033453	0.529062
	Al9196	Al	0.937510	-0.003335	0.562529
	Al9197	Al	0.937543	0.246746	0.562561
	Al9198	Al	0.874992	0.246067	0.500117
	Al9199	Al	0.875014	-0.003628	0.500236
	O9200	O	0.946863	0.036123	0.584522
	O9201	O	0.937543	0.121688	0.545530
	O9202	O	0.937511	0.371388	0.579726
	O9203	O	0.990828	0.038987	0.602589
	O9204	O	0.928384	0.038479	0.585138
	O9205	O	0.884306	0.036522	0.602896
	O9206	O	0.928222	0.206842	0.584672
	O9207	O	0.928352	0.288384	0.539948
	O9208	O	0.884314	0.286163	0.522169
	O9209	O	0.946670	0.204544	0.585099
	O9210	O	0.946813	0.286325	0.540532
	O9211	O	0.990826	0.288612	0.522762
	O9212	O	0.884212	0.204880	0.602738
	O9213	O	0.928187	0.456812	0.540563
	O9214	O	0.884159	0.454553	0.522597
	O9215	O	0.990673	0.456906	0.522149
	O9216	O	0.946651	0.454543	0.539959
	O9217	O	0.990695	0.207404	0.603043
	O9218	O	0.874991	0.371476	0.608011
	O9219	O	1.000003	0.122107	0.517069
	C9220	C	0.973034	0.212508	0.595306
	C9221	C	0.977668	0.122715	0.596215
	C9222	C	0.973282	0.031989	0.594737
	C9223	C	0.964488	0.031130	0.592538
	C9224	C	0.959861	0.121071	0.591540
	C9225	C	0.964236	0.211780	0.593094
	C9226	C	0.950457	0.120548	0.586915
	C9227	C	0.987081	0.123069	0.600826
	C9228	C	0.924605	0.122753	0.586963
	C9229	C	0.915185	0.122256	0.591599
	C9230	C	0.910569	0.211937	0.592428
	C9231	C	0.901779	0.211264	0.594656
	C9232	C	0.897370	0.120857	0.596098
	C9233	C	0.901982	0.031123	0.595313
	C9234	C	0.910776	0.031927	0.593154
	C9235	C	0.887943	0.120649	0.600708
	C9236	C	0.924583	0.372595	0.538197
	C9237	C	0.915171	0.371904	0.533511
	C9238	C	0.910557	0.461843	0.532811
	C9239	C	0.901763	0.461191	0.530662
	C9240	C	0.897350	0.370727	0.529016
	C9241	C	0.901963	0.280871	0.529880
	C9242	C	0.910749	0.281517	0.532065
	C9243	C	0.887927	0.370506	0.524373
	C9244	C	0.950436	0.370671	0.538216
	C9245	C	0.959842	0.370943	0.533520
	C9246	C	0.964471	0.281145	0.532682
	C9247	C	0.973255	0.281688	0.530544
	C9248	C	0.977655	0.372154	0.529013
	C9249	C	0.973048	0.462044	0.529892
	C9250	C	0.964244	0.461407	0.531992
	C9251	C	0.987062	0.372795	0.524340
	H9252	H	0.976740	0.211958	0.530190
	H9253	H	0.961194	0.210416	0.533918
	H9254	H	0.976330	0.283256	0.596235
	H9255	H	0.960744	0.281575	0.592436
	H9256	H	0.937634	0.121602	0.527208
	H9257	H	0.937466	0.371409	0.598017
	H9258	H	0.874871	0.371219	0.589661
	H9259	H	0.999996	0.121735	0.535456
	H9260	H	0.914228	0.211511	0.532662
	H9261	H	0.898642	0.210270	0.528858
	H9262	H	0.898308	0.281264	0.595333
	H9263	H	0.913889	0.282440	0.591512
	H9264	H	0.898262	0.530924	0.530189
	H9265	H	0.913869	0.532269	0.533964
	H9266	H	0.914264	-0.038146	0.592747
	H9267	H	0.898648	-0.039300	0.596440
	H9268	H	0.961186	-0.039476	0.591442
	H9269	H	0.976781	-0.037782	0.595227
	H9270	H	0.960748	0.531165	0.532663
	H9271	H	0.976369	0.532446	0.528987
	Al9272	Al	0.937494	-0.503325	0.687461
	Al9273	Al	0.937512	-0.253271	0.687557
	Al9274	Al	0.875021	-0.253598	0.625142
	Al9275	Al	0.875014	-0.503491	0.625026
	O9276	O	0.946821	-0.463594	0.709498
	O9277	O	0.937508	-0.378330	0.670508
	O9278	O	0.937526	-0.128207	0.704710
	O9279	O	0.990835	-0.461042	0.727513
	O9280	O	0.928370	-0.461205	0.710141
	O9281	O	0.884317	-0.463414	0.728178
	O9282	O	0.928179	-0.293220	0.709410
	O9283	O	0.928370	-0.210967	0.665010
	O9284	O	0.884367	-0.213633	0.647045
	O9285	O	0.946667	-0.295310	0.710026
	O9286	O	0.946863	-0.213931	0.665637
	O9287	O	0.990875	-0.210932	0.647871
	O9288	O	0.884214	-0.295130	0.727796
	O9289	O	0.928165	-0.042805	0.665592
	O9290	O	0.884167	-0.045554	0.647671
	O9291	O	0.990661	-0.042525	0.647138
	O9292	O	0.946639	-0.045621	0.664937
	O9293	O	0.990639	-0.292649	0.727960
	O9294	O	0.875045	-0.128689	0.733068
	O9295	O	1.000020	-0.377954	0.642106
	C9296	C	0.973018	-0.287703	0.720246
	C9297	C	0.977638	-0.377633	0.721141
	C9298	C	0.973235	-0.468103	0.719733
	C9299	C	0.964441	-0.468996	0.717473
	C9300	C	0.959834	-0.379040	0.716474
	C9301	C	0.964225	-0.288528	0.718018
	C9302	C	0.950430	-0.379385	0.711801
	C9303	C	0.987051	-0.377057	0.725734
	C9304	C	0.924580	-0.377451	0.711777
	C9305	C	0.915177	-0.378125	0.716548
	C9306	C	0.910573	-0.288357	0.717329
	C9307	C	0.901777	-0.288779	0.719580
	C9308	C	0.897362	-0.379047	0.721244
	C9309	C	0.901956	-0.468929	0.720349
	C9310	C	0.910761	-0.468525	0.718144
	C9311	C	0.887970	-0.379120	0.725928
	C9312	C	0.924575	-0.127071	0.663246
	C9313	C	0.915176	-0.127540	0.658608
	C9314	C	0.910565	-0.037648	0.657813
	C9315	C	0.901772	-0.038272	0.655639
	C9316	C	0.897348	-0.128633	0.654126
	C9317	C	0.901966	-0.218444	0.654887
	C9318	C	0.910755	-0.217840	0.657055
	C9319	C	0.887953	-0.129509	0.649327
	C9320	C	0.950442	-0.129393	0.663232
	C9321	C	0.959852	-0.128719	0.658629
	C9322	C	0.964459	-0.218596	0.657680
	C9323	C	0.973255	-0.218104	0.655528
	C9324	C	0.977665	-0.127655	0.654130
	C9325	C	0.973056	-0.037724	0.655005
	C9326	C	0.964260	-0.038171	0.657096
	C9327	C	0.987078	-0.127050	0.649528
	H9328	H	0.976713	-0.288032	0.654955
	H9329	H	0.961138	-0.289041	0.658692
	H9330	H	0.976327	-0.217124	0.721194
	H9331	H	0.960737	-0.218714	0.717335
	H9332	H	0.937567	-0.377887	0.652127
	H9333	H	0.937552	-0.128629	0.722969
	H9334	H	0.875061	-0.129031	0.714696
	H9335	H	1.000053	-0.377927	0.660446
	H9336	H	0.914208	-0.287888	0.657772
	H9337	H	0.898629	-0.288916	0.653922
	H9338	H	0.898310	-0.218730	0.720138
	H9339	H	0.913866	-0.217696	0.716204
	H9340	H	0.898278	0.031615	0.655219
	H9341	H	0.913881	0.032873	0.658998
	H9342	H	0.914240	-0.538532	0.717698
	H9343	H	0.898661	-0.539530	0.721499
	H9344	H	0.961136	-0.539734	0.716440
	H9345	H	0.976733	-0.537989	0.720317
	H9346	H	0.960776	0.031897	0.657627
	H9347	H	0.976386	0.032882	0.654021
	Al9348	Al	0.937501	-0.003048	0.687585
	Al9349	Al	0.937492	0.246514	0.687497
	Al9350	Al	0.874997	0.246563	0.625165
	Al9351	Al	0.874972	-0.003478	0.624999
	O9352	O	0.946871	0.036199	0.709400
	O9353	O	0.937511	0.121548	0.670522
	O9354	O	0.937498	0.371458	0.704502
	O9355	O	0.990870	0.039384	0.727283
	O9356	O	0.928336	0.038945	0.710153
	O9357	O	0.884291	0.036863	0.727911
	O9358	O	0.928172	0.207020	0.709548
	O9359	O	0.928379	0.288450	0.664813
	O9360	O	0.884315	0.286167	0.647224
	O9361	O	0.946640	0.204543	0.710170
	O9362	O	0.946841	0.286111	0.665578
	O9363	O	0.990852	0.289024	0.647749
	O9364	O	0.884186	0.205022	0.727613
	O9365	O	0.928232	0.456693	0.665393
	O9366	O	0.884155	0.454217	0.647627
	O9367	O	0.990677	0.457504	0.647201
	O9368	O	0.946651	0.454597	0.664873
	O9369	O	0.990678	0.207711	0.728081
	O9370	O	0.875004	0.371704	0.733160
	O9371	O	0.999987	0.122057	0.642215
	C9372	C	0.973060	0.212593	0.720208
	C9373	C	0.977682	0.122829	0.720954
	C9374	C	0.973290	0.032319	0.719400
	C9375	C	0.964492	0.031537	0.717308
	C9376	C	0.959866	0.121208	0.716429
	C9377	C	0.964253	0.211739	0.718015
	C9378	C	0.950460	0.120631	0.711847
	C9379	C	0.987076	0.123298	0.725635
	C9380	C	0.924555	0.122804	0.711877
	C9381	C	0.915143	0.122570	0.716528
	C9382	C	0.910532	0.212236	0.717443
	C9383	C	0.901746	0.211568	0.719657
	C9384	C	0.897340	0.121141	0.721101
	C9385	C	0.901953	0.031544	0.720185
	C9386	C	0.910739	0.032222	0.718023
	C9387	C	0.887937	0.120840	0.725698
	C9388	C	0.924601	0.372567	0.663151
	C9389	C	0.915191	0.372336	0.658454
	C9390	C	0.910574	0.462025	0.657606
	C9391	C	0.901771	0.461367	0.655492
	C9392	C	0.897354	0.371006	0.654026
	C9393	C	0.901970	0.281279	0.654909
	C9394	C	0.910768	0.281911	0.657002
	C9395	C	0.887925	0.370448	0.649435
	C9396	C	0.950450	0.370535	0.663208
	C9397	C	0.959845	0.371215	0.658404
	C9398	C	0.964475	0.281490	0.657738
	C9399	C	0.973267	0.282169	0.655624
	C9400	C	0.977670	0.372650	0.654099
	C9401	C	0.973041	0.462495	0.654786
	C9402	C	0.964243	0.461744	0.656850
	C9403	C	0.987077	0.373237	0.649448
	H9404	H	0.976739	0.212153	0.655192
	H9405	H	0.961175	0.211113	0.658840
	H9406	H	0.976369	0.282944	0.721305
	H9407	H	0.960777	0.281500	0.717551
	H9408	H	0.937643	0.121693	0.652169
	H9409	H	0.937545	0.371607	0.722792
	H9410	H	0.875000	0.371311	0.714887
	H9411	H	1.000026	0.121970	0.660579
	H9412	H	0.914258	0.211903	0.657625
	H9413	H	0.898653	0.210861	0.653986
	H9414	H	0.898292	0.281598	0.720315
	H9415	H	0.913872	0.282564	0.716587
	H9416	H	0.898285	0.531420	0.655020
	H9417	H	0.913867	0.532570	0.658649
	H9418	H	0.914206	-0.037864	0.717595
	H9419	H	0.898615	-0.038875	0.721259
	H9420	H	0.961183	-0.039004	0.716298
	H9421	H	0.976757	-0.037958	0.719893
	H9422	H	0.960748	0.531701	0.657330
	H9423	H	0.976362	0.532973	0.653689
	Al9424	Al	0.937503	-0.503801	0.812434
	Al9425	Al	0.937518	-0.254039	0.812582
	Al9426	Al	0.875026	-0.253335	0.750252
	Al9427	Al	0.875025	-0.503793	0.750308
	O9428	O	0.946825	-0.463957	0.834463
	O9429	O	0.937508	-0.378769	0.795403
	O9430	O	0.937548	-0.128993	0.829672
	O9431	O	0.990837	-0.461713	0.852411
	O9432	O	0.928354	-0.461881	0.835054
	O9433	O	0.884352	-0.463606	0.853098
	O9434	O	0.928191	-0.293842	0.834495
	O9435	O	0.928376	-0.211663	0.789971
	O9436	O	0.884339	-0.213584	0.772188
	O9437	O	0.946682	-0.295795	0.835172
	O9438	O	0.946855	-0.214574	0.790492
	O9439	O	0.990879	-0.210952	0.772617
	O9440	O	0.884169	-0.295408	0.852374
	O9441	O	0.928189	-0.043434	0.790733
	O9442	O	0.884178	-0.045430	0.772487
	O9443	O	0.990648	-0.042670	0.771746
	O9444	O	0.946642	-0.046163	0.789923
	O9445	O	0.990690	-0.293545	0.852954
	O9446	O	0.875062	-0.128253	0.858047
	O9447	O	1.000005	-0.377986	0.767083
	C9448	C	0.973061	-0.288497	0.845186
	C9449	C	0.977668	-0.378248	0.845954
	C9450	C	0.973261	-0.468718	0.844404
	C9451	C	0.964463	-0.469330	0.842297
	C9452	C	0.959845	-0.379461	0.841499
	C9453	C	0.964265	-0.289105	0.843018
	C9454	C	0.950460	-0.379857	0.836828
	C9455	C	0.987078	-0.377709	0.850584
	C9456	C	0.924582	-0.378058	0.836892
	C9457	C	0.915181	-0.378260	0.841608
	C9458	C	0.910597	-0.288264	0.842693
	C9459	C	0.901804	-0.288700	0.844897
	C9460	C	0.897363	-0.378965	0.846202
	C9461	C	0.901956	-0.468899	0.845265
	C9462	C	0.910746	-0.468460	0.843122
	C9463	C	0.887951	-0.379258	0.850739
	C9464	C	0.924582	-0.127724	0.788346
	C9465	C	0.915180	-0.128152	0.783564
	C9466	C	0.910567	-0.038427	0.782695
	C9467	C	0.901780	-0.038870	0.780524
	C9468	C	0.897358	-0.129088	0.779066
	C9469	C	0.901969	-0.218922	0.780005
	C9470	C	0.910752	-0.218418	0.782207
	C9471	C	0.887954	-0.129431	0.774357
	C9472	C	0.950446	-0.130010	0.788182
	C9473	C	0.959853	-0.129026	0.783610
	C9474	C	0.964456	-0.218882	0.782703
	C9475	C	0.973255	-0.218142	0.780545
	C9476	C	0.977662	-0.127779	0.778957
	C9477	C	0.973053	-0.037863	0.779733
	C9478	C	0.964263	-0.038603	0.781962
	C9479	C	0.987073	-0.126988	0.774327
	H9480	H	0.976751	-0.288117	0.780091
	H9481	H	0.961162	-0.289409	0.783690
	H9482	H	0.976386	-0.217963	0.846338
	H9483	H	0.960789	-0.219303	0.842560
	H9484	H	0.937564	-0.378226	0.776958
	H9485	H	0.937474	-0.128957	0.847976
	H9486	H	0.875011	-0.128114	0.839660
	H9487	H	0.999770	-0.377867	0.785468
	H9488	H	0.914220	-0.288419	0.782730
	H9489	H	0.898646	-0.289002	0.778801
	H9490	H	0.898319	-0.218897	0.845442
	H9491	H	0.913938	-0.217995	0.841672
	H9492	H	0.898308	0.031253	0.779739
	H9493	H	0.913906	0.031752	0.783524
	H9494	H	0.914201	-0.538581	0.842335
	H9495	H	0.898631	-0.539122	0.846127
	H9496	H	0.961127	-0.539697	0.841330
	H9497	H	0.976740	-0.538707	0.845003
	H9498	H	0.960774	0.031390	0.782402
	H9499	H	0.976366	0.032446	0.778665
	Al9500	Al	0.937512	-0.004214	0.812635
	Al9501	Al	0.937537	0.245857	0.812626
	Al9502	Al	0.875021	0.246483	0.750099
	Al9503	Al	0.875005	-0.003483	0.750090
	O9504	O	0.946880	0.035814	0.834504
	O9505	O	0.937505	0.120888	0.795669
	O9506	O	0.937525	0.371417	0.829484
	O9507	O	0.990860	0.038222	0.852339
	O9508	O	0.928373	0.038029	0.835407
	O9509	O	0.884287	0.036331	0.852734
	O9510	O	0.928203	0.206189	0.834491
	O9511	O	0.928340	0.287483	0.790103
	O9512	O	0.884323	0.286024	0.772192
	O9513	O	0.946695	0.204193	0.835255
	O9514	O	0.946814	0.285718	0.790599
	O9515	O	0.990846	0.288898	0.772736
	O9516	O	0.884148	0.204645	0.852424
	O9517	O	0.928224	0.455721	0.790379
	O9518	O	0.884171	0.454524	0.772821
	O9519	O	0.990643	0.457067	0.771892
	O9520	O	0.946608	0.453832	0.789733
	O9521	O	0.990711	0.206518	0.852886
	O9522	O	0.875037	0.371242	0.858021
	O9523	O	1.000030	0.122155	0.767109
	C9524	C	0.973084	0.211860	0.845313
	C9525	C	0.977695	0.122104	0.846015
	C9526	C	0.973290	0.031610	0.844599
	C9527	C	0.964491	0.030911	0.842484
	C9528	C	0.959885	0.120695	0.841580
	C9529	C	0.964290	0.210994	0.843095
	C9530	C	0.950478	0.120103	0.836827
	C9531	C	0.987088	0.122277	0.850661
	C9532	C	0.924585	0.122030	0.837077
	C9533	C	0.915182	0.121461	0.841624
	C9534	C	0.910580	0.211486	0.842483
	C9535	C	0.901788	0.210970	0.844609
	C9536	C	0.897343	0.120714	0.846117
	C9537	C	0.901949	0.030720	0.845282
	C9538	C	0.910745	0.031184	0.843164
	C9539	C	0.887919	0.120486	0.850622
	C9540	C	0.924597	0.371577	0.788237
	C9541	C	0.915181	0.371216	0.783607
	C9542	C	0.910585	0.461128	0.782749
	C9543	C	0.901791	0.460885	0.780669
	C9544	C	0.897350	0.370712	0.779316
	C9545	C	0.901941	0.280786	0.780246
	C9546	C	0.910741	0.280954	0.782310
	C9547	C	0.887947	0.370322	0.774478
	C9548	C	0.950403	0.370033	0.788181
	C9549	C	0.959808	0.370483	0.783439
	C9550	C	0.964460	0.280971	0.782682
	C9551	C	0.973243	0.281693	0.780530
	C9552	C	0.977646	0.372136	0.779026
	C9553	C	0.973005	0.461708	0.779792
	C9554	C	0.964217	0.460964	0.781877
	C9555	C	0.987045	0.372778	0.774308
	H9556	H	0.976728	0.211808	0.780007
	H9557	H	0.961140	0.210496	0.783846
	H9558	H	0.976377	0.282396	0.846421
	H9559	H	0.960808	0.280951	0.842559
	H9560	H	0.937423	0.120606	0.777443
	H9561	H	0.937349	0.371900	0.847875
	H9562	H	0.875123	0.371180	0.839659
	H9563	H	1.000005	0.121872	0.785512
	H9564	H	0.914202	0.211053	0.783075
	H9565	H	0.898608	0.210343	0.779514
	H9566	H	0.898309	0.281118	0.844973
	H9567	H	0.913915	0.281691	0.841402
	H9568	H	0.898324	0.531156	0.780164
	H9569	H	0.913922	0.531468	0.783771
	H9570	H	0.914224	-0.038956	0.842576
	H9571	H	0.898601	-0.039725	0.846176
	H9572	H	0.961171	-0.039614	0.841430
	H9573	H	0.976775	-0.038375	0.845139
	H9574	H	0.960720	0.530761	0.782443
	H9575	H	0.976322	0.532042	0.778810
	Al9576	Al	0.937512	-0.503943	0.937516
	Al9577	Al	0.937516	-0.254072	0.937523
	Al9578	Al	0.875025	-0.253142	0.875065
	Al9579	Al	0.874999	-0.503507	0.875070
	O9580	O	0.946821	-0.464051	0.959734
	O9581	O	0.937485	-0.379133	0.920530
	O9582	O	0.937485	-0.128941	0.954518
	O9583	O	0.990871	-0.461560	0.977290
	O9584	O	0.928332	-0.462144	0.960027
	O9585	O	0.884330	-0.463868	0.978024
	O9586	O	0.928217	-0.293818	0.959674
	O9587	O	0.928379	-0.212409	0.914801
	O9588	O	0.884332	-0.213937	0.897372
	O9589	O	0.946641	-0.296037	0.960102
	O9590	O	0.946777	-0.213801	0.915397
	O9591	O	0.990819	-0.212089	0.897456
	O9592	O	0.884183	-0.295569	0.977768
	O9593	O	0.928247	-0.044180	0.915444
	O9594	O	0.884212	-0.045692	0.897624
	O9595	O	0.990686	-0.043672	0.897062
	O9596	O	0.946700	-0.045382	0.915074
	O9597	O	0.990692	-0.293233	0.977948
	O9598	O	0.875036	-0.129078	0.983188
	O9599	O	0.999974	-0.378304	0.892179
	C9600	C	0.973045	-0.288136	0.970387
	C9601	C	0.977678	-0.377740	0.970976
	C9602	C	0.973272	-0.468173	0.969369
	C9603	C	0.964470	-0.468803	0.967295
	C9604	C	0.959851	-0.379231	0.966529
	C9605	C	0.964249	-0.288754	0.968246
	C9606	C	0.950433	-0.379860	0.961953
	C9607	C	0.987088	-0.377467	0.975598
	C9608	C	0.924588	-0.378011	0.961855
	C9609	C	0.915169	-0.378495	0.966550
	C9610	C	0.910558	-0.288695	0.967408
	C9611	C	0.901759	-0.289120	0.969497
	C9612	C	0.897360	-0.379477	0.971119
	C9613	C	0.901965	-0.469319	0.970240
	C9614	C	0.910760	-0.468902	0.968081
	C9615	C	0.887940	-0.379725	0.975783
	C9616	C	0.924609	-0.128337	0.913140
	C9617	C	0.915208	-0.128442	0.908482
	C9618	C	0.910599	-0.038661	0.907782
	C9619	C	0.901796	-0.039020	0.905711
	C9620	C	0.897378	-0.129421	0.904212
	C9621	C	0.901981	-0.219121	0.904984
	C9622	C	0.910790	-0.218776	0.907002
	C9623	C	0.887970	-0.129659	0.899504
	C9624	C	0.950438	-0.129734	0.913231
	C9625	C	0.959840	-0.129642	0.908660
	C9626	C	0.964462	-0.219554	0.907907
	C9627	C	0.973249	-0.218727	0.905700
	C9628	C	0.977663	-0.128183	0.904076
	C9629	C	0.973033	-0.038367	0.904912
	C9630	C	0.964245	-0.039129	0.907073
	C9631	C	0.987064	-0.127950	0.899361
	H9632	H	0.976776	-0.288724	0.905162
	H9633	H	0.961154	-0.290159	0.908977
	H9634	H	0.976356	-0.217687	0.971623
	H9635	H	0.960802	-0.218604	0.967888
	H9636	H	0.937440	-0.379396	0.902264
	H9637	H	0.937559	-0.129183	0.972916
	H9638	H	0.875080	-0.129510	0.964827
	H9639	H	0.999946	-0.378414	0.910556
	H9640	H	0.914235	-0.289158	0.907522
	H9641	H	0.898644	-0.289563	0.903981
	H9642	H	0.898295	-0.218949	0.970134
	H9643	H	0.913891	-0.218176	0.966536
	H9644	H	0.898335	0.030885	0.905298
	H9645	H	0.913916	0.031878	0.908925
	H9646	H	0.914230	-0.539176	0.967758
	H9647	H	0.898634	-0.539593	0.971463
	H9648	H	0.961142	-0.539323	0.966208
	H9649	H	0.976737	-0.538243	0.969738
	H9650	H	0.960747	0.030433	0.907470
	H9651	H	0.976321	0.032272	0.903732
	Al9652	Al	0.937507	-0.003819	0.937451
	Al9653	Al	0.937507	0.246068	0.937688
	Al9654	Al	0.874996	0.246343	0.875047
	Al9655	Al	0.874997	-0.003605	0.875197
	O9656	O	0.946820	0.035903	0.959637
	O9657	O	0.937498	0.121396	0.920483
	O9658	O	0.937468	0.371105	0.954627
	O9659	O	0.990789	0.038124	0.977758
	O9660	O	0.928344	0.038090	0.959956
	O9661	O	0.884307	0.036341	0.977972
	O9662	O	0.928204	0.206340	0.959706
	O9663	O	0.928299	0.287594	0.915112
	O9664	O	0.884279	0.286476	0.897308
	O9665	O	0.946640	0.204234	0.960153
	O9666	O	0.946820	0.286501	0.915696
	O9667	O	0.990816	0.288231	0.897568
	O9668	O	0.884190	0.204679	0.977435
	O9669	O	0.928189	0.455958	0.915493
	O9670	O	0.884153	0.454592	0.897599
	O9671	O	0.990685	0.456640	0.897159
	O9672	O	0.946677	0.454680	0.915053
	O9673	O	0.990676	0.206590	0.977954
	O9674	O	0.875072	0.371545	0.983168
	O9675	O	1.000005	0.121465	0.892016
	C9676	C	0.973039	0.211960	0.970326
	C9677	C	0.977650	0.121976	0.970908
	C9678	C	0.973243	0.031654	0.969428
	C9679	C	0.964457	0.031025	0.967316
	C9680	C	0.959843	0.120942	0.966425
	C9681	C	0.964232	0.211409	0.968198
	C9682	C	0.950438	0.120159	0.961867
	C9683	C	0.987044	0.122201	0.975713
	C9684	C	0.924587	0.121998	0.961838
	C9685	C	0.915179	0.121550	0.966567
	C9686	C	0.910576	0.211425	0.967442
	C9687	C	0.901783	0.211037	0.969603
	C9688	C	0.897350	0.120721	0.971071
	C9689	C	0.901949	0.030851	0.970285
	C9690	C	0.910747	0.031112	0.968121
	C9691	C	0.887959	0.120596	0.975710
	C9692	C	0.924543	0.371958	0.913323
	C9693	C	0.915147	0.371985	0.908657
	C9694	C	0.910530	0.461930	0.907833
	C9695	C	0.901741	0.461643	0.905696
	C9696	C	0.897322	0.371234	0.904079
	C9697	C	0.901934	0.281298	0.905020
	C9698	C	0.910723	0.281743	0.907156
	C9699	C	0.887914	0.370556	0.899443
	C9700	C	0.950444	0.370724	0.913268
	C9701	C	0.959844	0.370668	0.908486
	C9702	C	0.964457	0.280940	0.907675
	C9703	C	0.973254	0.281561	0.905543
	C9704	C	0.977662	0.372042	0.904057
	C9705	C	0.973052	0.461797	0.904872
	C9706	C	0.964259	0.461119	0.906961
	C9707	C	0.987056	0.372426	0.899447
	H9708	H	0.976716	0.211386	0.904966
	H9709	H	0.961117	0.210405	0.908711
	H9710	H	0.976360	0.282586	0.971451
	H9711	H	0.960714	0.281200	0.967799
	H9712	H	0.937453	0.121973	0.902096
	H9713	H	0.937458	0.370772	0.972943
	H9714	H	0.875158	0.371772	0.964872
	H9715	H	0.999972	0.121632	0.910308
	H9716	H	0.914186	0.211857	0.907737
	H9717	H	0.898594	0.211030	0.903982
	H9718	H	0.898311	0.281184	0.970148
	H9719	H	0.913915	0.281563	0.966333
	H9720	H	0.898279	0.531422	0.905175
	H9721	H	0.913863	0.532427	0.909000
	H9722	H	0.914208	-0.038747	0.967562
	H9723	H	0.898621	-0.039719	0.971386
	H9724	H	0.961179	-0.039492	0.966188
	H9725	H	0.976733	-0.038391	0.969875
	H9726	H	0.960807	0.531211	0.907464
	H9727	H	0.976376	0.532210	0.903796
