data_Molecule from HDF5

_cell_length_a		152.064159
_cell_length_b		13.356601
_cell_length_c		63.101270
_cell_angle_alpha	89.985752
_cell_angle_beta	92.837361
_cell_angle_gamma	89.956969
_symmetry_space_group_name_H-M	'P 1'
_symmetry_Int_Tables_number		1

loop_
	_symmetry_equiv_pos_as_xyz
	x,y,z

loop_
	_atom_site_label
	_atom_site_type_symbol
	_atom_site_fract_x
	_atom_site_fract_y
	_atom_site_fract_z
	Al0	Al	0.055054	-0.501036	0.102816
	Al1	Al	0.055078	-0.251167	0.102745
	Al2	Al	-0.010696	-0.251461	0.057990
	Al3	Al	-0.010676	-0.500624	0.057954
	O4	O	0.065209	-0.460566	0.119812
	O5	O	0.054696	-0.376087	0.089115
	O6	O	0.055421	-0.126074	0.116489
	O7	O	0.111201	-0.459771	0.128040
	O8	O	0.045911	-0.460043	0.120885
	O9	O	0.001700	-0.459746	0.146962
	O10	O	0.045956	-0.291817	0.120889
	O11	O	0.045013	-0.209729	0.085498
	O12	O	-0.000975	-0.210111	0.076737
	O13	O	0.065191	-0.292265	0.119994
	O14	O	0.064200	-0.210082	0.084636
	O15	O	0.108415	-0.209592	0.058351
	O16	O	0.001699	-0.291509	0.146897
	O17	O	0.044982	-0.041344	0.085597
	O18	O	-0.000978	-0.041664	0.076614
	O19	O	0.108355	-0.041440	0.058171
	O20	O	0.064172	-0.041872	0.084687
	O21	O	0.111176	-0.291390	0.127953
	O22	O	-0.007838	-0.125380	0.151480
	O23	O	0.117953	-0.375729	0.053754
	C24	C	0.092736	-0.285924	0.124322
	C25	C	0.097453	-0.375852	0.124661
	C26	C	0.092783	-0.466072	0.124303
	C27	C	0.083635	-0.466257	0.123702
	C28	C	0.078936	-0.376346	0.123360
	C29	C	0.083597	-0.286108	0.123751
	C30	C	0.069065	-0.376334	0.120975
	C31	C	0.107318	-0.375592	0.126991
	C32	C	0.042231	-0.375751	0.123343
	C33	C	0.032819	-0.375421	0.129448
	C34	C	0.028255	-0.285553	0.131773
	C35	C	0.019373	-0.285543	0.136096
	C36	C	0.014794	-0.375540	0.138195
	C37	C	0.019389	-0.465405	0.136084
	C38	C	0.028261	-0.465476	0.131796
	C39	C	0.005394	-0.375709	0.144489
	C40	C	0.041127	-0.125562	0.084411
	C41	C	0.031261	-0.125742	0.081794
	C42	C	0.026571	-0.035790	0.081464
	C43	C	0.017422	-0.035820	0.080681
	C44	C	0.012760	-0.125836	0.080219
	C45	C	0.017439	-0.215715	0.080507
	C46	C	0.026582	-0.215745	0.081266
	C47	C	0.002905	-0.125973	0.077777
	C48	C	0.067876	-0.125827	0.082119
	C49	C	0.077274	-0.125926	0.075836
	C50	C	0.081866	-0.215878	0.073538
	C51	C	0.090724	-0.215688	0.069201
	C52	C	0.095295	-0.125657	0.066892
	C53	C	0.090695	-0.035816	0.069107
	C54	C	0.081837	-0.036022	0.073492
	C55	C	0.104712	-0.125486	0.060741
	H56	H	0.094184	-0.285498	0.067507
	H57	H	0.078453	-0.285798	0.075192
	H58	H	0.096237	-0.215807	0.124528
	H59	H	0.080066	-0.215751	0.123563
	H60	H	0.054346	-0.376401	0.074546
	H61	H	0.055981	-0.126318	0.131053
	H62	H	-0.008367	-0.124742	0.136958
	H63	H	0.118539	-0.375583	0.068253
	H64	H	0.030090	-0.285748	0.081509
	H65	H	0.013923	-0.285636	0.080198
	H66	H	0.015940	-0.215256	0.137706
	H67	H	0.031680	-0.215669	0.130019
	H68	H	0.013890	0.034156	0.080517
	H69	H	0.030087	0.034167	0.081912
	H70	H	0.031674	-0.535682	0.130091
	H71	H	0.015961	-0.535445	0.137813
	H72	H	0.080133	-0.536603	0.123447
	H73	H	0.096333	-0.536080	0.124526
	H74	H	0.078354	0.033774	0.075114
	H75	H	0.094094	0.034299	0.067371
	Al76	Al	0.055068	-0.000893	0.102866
	Al77	Al	0.055050	0.249038	0.102650
	Al78	Al	-0.010693	0.248434	0.057970
	Al79	Al	-0.010691	-0.000693	0.057790
	O80	O	0.065170	0.039961	0.120067
	O81	O	0.054675	0.124076	0.089202
	O82	O	0.055450	0.373918	0.116363
	O83	O	0.111167	0.040159	0.128032
	O84	O	0.045919	0.040245	0.120917
	O85	O	0.001712	0.040001	0.147186
	O86	O	0.045930	0.208273	0.120921
	O87	O	0.044974	0.289838	0.085486
	O88	O	-0.000985	0.289297	0.076691
	O89	O	0.065136	0.208043	0.120068
	O90	O	0.064157	0.289912	0.084359
	O91	O	0.108436	0.289632	0.058301
	O92	O	0.001674	0.208429	0.146807
	O93	O	0.044968	0.458253	0.085474
	O94	O	-0.001028	0.457771	0.076823
	O95	O	0.108452	0.457786	0.058476
	O96	O	0.064209	0.458014	0.084670
	O97	O	0.111162	0.208336	0.127922
	O98	O	-0.007840	0.374735	0.151376
	O99	O	0.117941	0.123795	0.053672
	C100	C	0.092706	0.214309	0.124292
	C101	C	0.097418	0.124488	0.124658
	C102	C	0.092736	0.034546	0.124386
	C103	C	0.083602	0.034479	0.123880
	C104	C	0.078894	0.124255	0.123549
	C105	C	0.083569	0.214283	0.123821
	C106	C	0.069047	0.124142	0.121208
	C107	C	0.107284	0.124272	0.126967
	C108	C	0.042227	0.124311	0.123440
	C109	C	0.032778	0.124399	0.129447
	C110	C	0.028194	0.214372	0.131720
	C111	C	0.019330	0.214205	0.135990
	C112	C	0.014795	0.124270	0.138197
	C113	C	0.019373	0.034391	0.135954
	C114	C	0.028238	0.034533	0.131684
	C115	C	0.005383	0.124158	0.144517
	C116	C	0.041085	0.374164	0.084347
	C117	C	0.031263	0.374085	0.081693
	C118	C	0.026552	0.463968	0.081380
	C119	C	0.017416	0.463657	0.080679
	C120	C	0.012730	0.373821	0.080227
	C121	C	0.017440	0.283927	0.080455
	C122	C	0.026572	0.284220	0.081204
	C123	C	0.002873	0.373593	0.077836
	C124	C	0.067877	0.373850	0.082019
	C125	C	0.077317	0.373959	0.075815
	C126	C	0.081887	0.284176	0.073526
	C127	C	0.090758	0.284067	0.069230
	C128	C	0.095320	0.374037	0.066977
	C129	C	0.090747	0.463890	0.069262
	C130	C	0.081876	0.463899	0.073566
	C131	C	0.104760	0.373697	0.060925
	H132	H	0.094158	0.213910	0.067609
	H133	H	0.078429	0.214212	0.075165
	H134	H	0.096207	0.284274	0.124428
	H135	H	0.080024	0.284106	0.123608
	H136	H	0.054262	0.123890	0.074694
	H137	H	0.056108	0.373877	0.130840
	H138	H	-0.008375	0.374797	0.136849
	H139	H	0.118388	0.123925	0.068189
	H140	H	0.030130	0.214386	0.081463
	H141	H	0.013923	0.213933	0.080139
	H142	H	0.015851	0.284197	0.137461
	H143	H	0.031580	0.284488	0.129861
	H144	H	0.013861	0.533386	0.080519
	H145	H	0.030059	0.534077	0.081789
	H146	H	0.031663	-0.035525	0.129782
	H147	H	0.015949	-0.035954	0.137391
	H148	H	0.080079	-0.035493	0.123727
	H149	H	0.096255	-0.035656	0.124567
	H150	H	0.078456	0.534060	0.075167
	H151	H	0.094163	0.534107	0.067534
	Al152	Al	0.058762	-0.500489	0.207558
	Al153	Al	0.058819	-0.250320	0.207571
	Al154	Al	-0.007435	-0.250557	0.165047
	Al155	Al	-0.007468	-0.500769	0.165051
	O156	O	0.068899	-0.460438	0.224719
	O157	O	0.058346	-0.375465	0.193981
	O158	O	0.059206	-0.125150	0.221157
	O159	O	0.114891	-0.459982	0.233003
	O160	O	0.049680	-0.459177	0.225820
	O161	O	0.005343	-0.458968	0.251720
	O162	O	0.049599	-0.291049	0.225514
	O163	O	0.048669	-0.209453	0.190308
	O164	O	0.002680	-0.210071	0.182239
	O165	O	0.068892	-0.291970	0.224801
	O166	O	0.067914	-0.209770	0.189396
	O167	O	0.112188	-0.209570	0.163399
	O168	O	0.005369	-0.290863	0.251825
	O169	O	0.048679	-0.041135	0.190363
	O170	O	0.002622	-0.041845	0.182444
	O171	O	0.112145	-0.041371	0.163322
	O172	O	0.067922	-0.041538	0.189438
	O173	O	0.114897	-0.291449	0.232801
	O174	O	-0.004085	-0.125101	0.256417
	O175	O	0.121731	-0.375347	0.158822
	C176	C	0.096462	-0.285956	0.229024
	C177	C	0.101160	-0.375858	0.229390
	C178	C	0.096484	-0.465977	0.229060
	C179	C	0.087337	-0.466066	0.228496
	C180	C	0.082630	-0.376059	0.228133
	C181	C	0.087316	-0.285965	0.228475
	C182	C	0.072763	-0.376343	0.225759
	C183	C	0.111009	-0.375650	0.231877
	C184	C	0.045967	-0.375260	0.228201
	C185	C	0.036529	-0.375530	0.234401
	C186	C	0.031946	-0.285606	0.236593
	C187	C	0.023067	-0.285503	0.240850
	C188	C	0.018485	-0.375297	0.243181
	C189	C	0.023058	-0.465297	0.240866
	C190	C	0.031936	-0.465419	0.236576
	C191	C	0.009049	-0.374941	0.249315
	C192	C	0.044776	-0.125258	0.189282
	C193	C	0.034928	-0.125213	0.186893
	C194	C	0.030208	-0.035278	0.186603
	C195	C	0.021076	-0.035591	0.186040
	C196	C	0.016391	-0.125656	0.185712
	C197	C	0.021108	-0.215503	0.185947
	C198	C	0.030238	-0.215264	0.186507
	C199	C	0.006524	-0.125743	0.183329
	C200	C	0.071606	-0.125662	0.186879
	C201	C	0.081040	-0.125857	0.180743
	C202	C	0.085630	-0.215656	0.178513
	C203	C	0.094522	-0.215435	0.174264
	C204	C	0.099043	-0.125406	0.171949
	C205	C	0.094487	-0.035622	0.174377
	C206	C	0.085598	-0.035854	0.178606
	C207	C	0.108469	-0.125522	0.165895
	H208	H	0.097935	-0.285614	0.172630
	H209	H	0.082189	-0.285540	0.179990
	H210	H	0.099979	-0.215841	0.229156
	H211	H	0.083785	-0.215713	0.228206
	H212	H	0.057684	-0.375484	0.179421
	H213	H	0.059800	-0.125686	0.235665
	H214	H	-0.004592	-0.125299	0.241818
	H215	H	0.122467	-0.375216	0.173455
	H216	H	0.033795	-0.285264	0.186732
	H217	H	0.017596	-0.285593	0.185702
	H218	H	0.019644	-0.215326	0.242475
	H219	H	0.035377	-0.215526	0.234893
	H220	H	0.017512	0.034254	0.185883
	H221	H	0.033704	0.034878	0.186875
	H222	H	0.035370	-0.535382	0.234919
	H223	H	0.019623	-0.535379	0.242536
	H224	H	0.083818	-0.536225	0.228254
	H225	H	0.100008	-0.536094	0.229251
	H226	H	0.082176	0.034528	0.180204
	H227	H	0.097902	0.034759	0.172841
	Al228	Al	0.058798	-0.000303	0.207636
	Al229	Al	0.058778	0.249606	0.207506
	Al230	Al	-0.007461	0.249347	0.165047
	Al231	Al	-0.007471	-0.000347	0.165177
	O232	O	0.068893	0.040450	0.224846
	O233	O	0.058359	0.124535	0.193911
	O234	O	0.059223	0.374391	0.221148
	O235	O	0.114904	0.040212	0.232871
	O236	O	0.049696	0.040619	0.225921
	O237	O	0.005397	0.040715	0.251758
	O238	O	0.049612	0.208773	0.225619
	O239	O	0.048630	0.290597	0.190401
	O240	O	0.002685	0.289975	0.182154
	O241	O	0.068876	0.208767	0.224699
	O242	O	0.067905	0.290228	0.189321
	O243	O	0.112152	0.290383	0.163457
	O244	O	0.005318	0.208979	0.251451
	O245	O	0.048631	0.458917	0.190504
	O246	O	0.002596	0.458199	0.182234
	O247	O	0.112159	0.458489	0.163463
	O248	O	0.067836	0.458363	0.189208
	O249	O	0.114886	0.208569	0.232869
	O250	O	-0.004185	0.375008	0.256358
	O251	O	0.121708	0.124282	0.158790
	C252	C	0.096463	0.214508	0.228947
	C253	C	0.101145	0.124433	0.229398
	C254	C	0.096446	0.034432	0.229135
	C255	C	0.087305	0.034588	0.228613
	C256	C	0.082623	0.124725	0.228173
	C257	C	0.087326	0.214749	0.228418
	C258	C	0.072769	0.124758	0.225851
	C259	C	0.111000	0.124481	0.231804
	C260	C	0.045959	0.124729	0.228346
	C261	C	0.036531	0.124464	0.234424
	C262	C	0.031960	0.214418	0.236547
	C263	C	0.023075	0.214666	0.240797
	C264	C	0.018525	0.124766	0.243143
	C265	C	0.023099	0.034740	0.241112
	C266	C	0.031988	0.034576	0.236867
	C267	C	0.009063	0.124972	0.249144
	C268	C	0.044751	0.374809	0.189354
	C269	C	0.034886	0.374913	0.187081
	C270	C	0.030168	0.464698	0.186798
	C271	C	0.021027	0.464645	0.186212
	C272	C	0.016374	0.374584	0.185817
	C273	C	0.021088	0.284814	0.186112
	C274	C	0.030228	0.284745	0.186709
	C275	C	0.006511	0.374339	0.183356
	C276	C	0.071588	0.374409	0.186895
	C277	C	0.081015	0.374339	0.180675
	C278	C	0.085569	0.284530	0.178396
	C279	C	0.094454	0.284543	0.174179
	C280	C	0.099049	0.374354	0.172092
	C281	C	0.094515	0.464153	0.174606
	C282	C	0.085633	0.464055	0.178783
	C283	C	0.108462	0.374387	0.165945
	H284	H	0.097856	0.214643	0.172317
	H285	H	0.082158	0.214592	0.179786
	H286	H	0.099993	0.284659	0.228995
	H287	H	0.083784	0.284710	0.228184
	H288	H	0.057712	0.124108	0.179452
	H289	H	0.059913	0.374904	0.235758
	H290	H	-0.004804	0.375139	0.241769
	H291	H	0.122366	0.123849	0.173362
	H292	H	0.033767	0.214847	0.186811
	H293	H	0.017565	0.214786	0.185943
	H294	H	0.019650	0.284961	0.242186
	H295	H	0.035363	0.284646	0.234808
	H296	H	0.017512	0.534677	0.186068
	H297	H	0.033687	0.534680	0.186962
	H298	H	0.035409	-0.035675	0.235285
	H299	H	0.019659	-0.035170	0.242756
	H300	H	0.083788	-0.035422	0.228509
	H301	H	0.099979	-0.035777	0.229381
	H302	H	0.082190	0.533894	0.180538
	H303	H	0.097936	0.534507	0.173093
	Al304	Al	0.062475	-0.500500	0.312350
	Al305	Al	0.062467	-0.250579	0.312444
	Al306	Al	-0.003759	-0.250075	0.270051
	Al307	Al	-0.003766	-0.500040	0.269975
	O308	O	0.072601	-0.459932	0.329467
	O309	O	0.062064	-0.375457	0.298773
	O310	O	0.062834	-0.125375	0.325968
	O311	O	0.118633	-0.460167	0.337392
	O312	O	0.053353	-0.459616	0.330588
	O313	O	0.009028	-0.459350	0.356422
	O314	O	0.053320	-0.291407	0.330590
	O315	O	0.052407	-0.209753	0.295031
	O316	O	0.006386	-0.209141	0.287111
	O317	O	0.072612	-0.291665	0.329598
	O318	O	0.071581	-0.209632	0.294264
	O319	O	0.115861	-0.209595	0.268100
	O320	O	0.009071	-0.291286	0.356491
	O321	O	0.052379	-0.041453	0.295190
	O322	O	0.006359	-0.040935	0.287206
	O323	O	0.115849	-0.041340	0.268181
	O324	O	0.071591	-0.041538	0.294146
	O325	O	0.118609	-0.292058	0.337506
	O326	O	-0.000471	-0.125216	0.361046
	O327	O	0.125447	-0.375732	0.263572
	C328	C	0.100165	-0.286229	0.333688
	C329	C	0.104871	-0.376110	0.334001
	C330	C	0.100179	-0.465940	0.333655
	C331	C	0.091037	-0.465972	0.333130
	C332	C	0.086335	-0.376117	0.332895
	C333	C	0.091028	-0.286312	0.333185
	C334	C	0.076501	-0.375925	0.330528
	C335	C	0.114732	-0.376249	0.336412
	C336	C	0.049639	-0.375715	0.333038
	C337	C	0.040204	-0.375579	0.339103
	C338	C	0.035622	-0.285662	0.341269
	C339	C	0.026735	-0.285792	0.345474
	C340	C	0.022182	-0.375660	0.347741
	C341	C	0.026763	-0.465612	0.345537
	C342	C	0.035657	-0.465520	0.341352
	C343	C	0.012756	-0.375424	0.353904
	C344	C	0.048504	-0.125637	0.294097
	C345	C	0.038646	-0.125562	0.291632
	C346	C	0.033952	-0.035433	0.291385
	C347	C	0.024818	-0.035349	0.290866
	C348	C	0.020103	-0.125120	0.290554
	C349	C	0.024783	-0.215261	0.290835
	C350	C	0.033927	-0.215335	0.291328
	C351	C	0.010262	-0.125122	0.288221
	C352	C	0.075280	-0.125800	0.291654
	C353	C	0.084718	-0.125741	0.285527
	C354	C	0.089301	-0.215485	0.283274
	C355	C	0.098182	-0.215555	0.279013
	C356	C	0.102742	-0.125562	0.276728
	C357	C	0.098155	-0.035768	0.278943
	C358	C	0.089273	-0.035887	0.283192
	C359	C	0.112152	-0.125557	0.270596
	H360	H	0.101625	-0.285748	0.277557
	H361	H	0.085888	-0.285583	0.285037
	H362	H	0.103663	-0.216149	0.333920
	H363	H	0.087516	-0.216188	0.333042
	H364	H	0.061420	-0.374819	0.284245
	H365	H	0.063375	-0.125209	0.340471
	H366	H	-0.001048	-0.125219	0.346506
	H367	H	0.125935	-0.375584	0.278306
	H368	H	0.037451	-0.285370	0.291505
	H369	H	0.021240	-0.285202	0.290603
	H370	H	0.023301	-0.215496	0.347136
	H371	H	0.039054	-0.215170	0.339695
	H372	H	0.021312	0.035091	0.290679
	H373	H	0.037501	0.034620	0.291553
	H374	H	0.039103	-0.535493	0.339844
	H375	H	0.023374	-0.535728	0.347211
	H376	H	0.087504	-0.536060	0.332980
	H377	H	0.103679	-0.536030	0.333864
	H378	H	0.085845	0.034222	0.284827
	H379	H	0.101572	0.034321	0.277459
	Al380	Al	0.062468	-0.000340	0.312336
	Al381	Al	0.062462	0.249609	0.312292
	Al382	Al	-0.003761	0.249731	0.269818
	Al383	Al	-0.003743	-0.000265	0.269979
	O384	O	0.072577	0.040711	0.329471
	O385	O	0.062069	0.124664	0.298716
	O386	O	0.062880	0.374416	0.325933
	O387	O	0.118593	0.040049	0.337720
	O388	O	0.053330	0.040918	0.330540
	O389	O	0.009087	0.040866	0.356448
	O390	O	0.053328	0.209142	0.330502
	O391	O	0.052343	0.290778	0.295105
	O392	O	0.006344	0.290765	0.286987
	O393	O	0.072618	0.208965	0.329318
	O394	O	0.071541	0.290639	0.294000
	O395	O	0.115876	0.290313	0.268220
	O396	O	0.009089	0.209103	0.356640
	O397	O	0.052313	0.459055	0.295314
	O398	O	0.006353	0.459021	0.287042
	O399	O	0.115889	0.458498	0.268290
	O400	O	0.071571	0.458654	0.294100
	O401	O	0.118615	0.208369	0.337466
	O402	O	-0.000477	0.374998	0.361115
	O403	O	0.125476	0.124002	0.263635
	C404	C	0.100186	0.214700	0.333808
	C405	C	0.104872	0.124519	0.334251
	C406	C	0.100179	0.034461	0.333903
	C407	C	0.091047	0.034322	0.333330
	C408	C	0.086350	0.124401	0.332845
	C409	C	0.091042	0.214504	0.333235
	C410	C	0.076485	0.124720	0.330528
	C411	C	0.114728	0.124375	0.336557
	C412	C	0.049642	0.124957	0.333014
	C413	C	0.040234	0.124965	0.339177
	C414	C	0.035657	0.214942	0.341320
	C415	C	0.026789	0.214905	0.345578
	C416	C	0.022207	0.125038	0.347919
	C417	C	0.026764	0.035108	0.345655
	C418	C	0.035653	0.035028	0.341417
	C419	C	0.012771	0.124994	0.354021
	C420	C	0.048459	0.374947	0.294220
	C421	C	0.038609	0.374864	0.291864
	C422	C	0.033927	0.464917	0.291611
	C423	C	0.024774	0.465130	0.291030
	C424	C	0.020085	0.375104	0.290633
	C425	C	0.024786	0.285164	0.290938
	C426	C	0.033918	0.285034	0.291513
	C427	C	0.010240	0.374831	0.288177
	C428	C	0.075272	0.374658	0.291634
	C429	C	0.084713	0.374439	0.285528
	C430	C	0.089277	0.284526	0.283231
	C431	C	0.098170	0.284559	0.279072
	C432	C	0.102754	0.374291	0.276910
	C433	C	0.098176	0.464214	0.279142
	C434	C	0.089285	0.464300	0.283309
	C435	C	0.112184	0.374460	0.270735
	H436	H	0.101602	0.214234	0.277531
	H437	H	0.085872	0.214359	0.284880
	H438	H	0.103728	0.284684	0.333924
	H439	H	0.087493	0.284772	0.332981
	H440	H	0.061530	0.124719	0.284067
	H441	H	0.063484	0.373871	0.340449
	H442	H	-0.001086	0.374815	0.346552
	H443	H	0.126211	0.123373	0.278178
	H444	H	0.037439	0.214822	0.291547
	H445	H	0.021272	0.215126	0.290529
	H446	H	0.023357	0.285117	0.347193
	H447	H	0.039093	0.285052	0.339710
	H448	H	0.021239	0.535355	0.290720
	H449	H	0.037467	0.535102	0.291742
	H450	H	0.039066	-0.035057	0.339855
	H451	H	0.023324	-0.035025	0.347329
	H452	H	0.087530	-0.035577	0.333143
	H453	H	0.103699	-0.035706	0.334053
	H454	H	0.085859	0.534327	0.285049
	H455	H	0.101610	0.534285	0.277655
	Al456	Al	0.066181	-0.500705	0.417186
	Al457	Al	0.066168	-0.250453	0.417203
	Al458	Al	-0.000077	-0.250267	0.374695
	Al459	Al	-0.000040	-0.500046	0.374709
	O460	O	0.076299	-0.459951	0.434479
	O461	O	0.065796	-0.375536	0.403621
	O462	O	0.066600	-0.125607	0.430898
	O463	O	0.122293	-0.459773	0.442559
	O464	O	0.057099	-0.459729	0.435326
	O465	O	0.012910	-0.460072	0.461945
	O466	O	0.057017	-0.291454	0.435281
	O467	O	0.056040	-0.209397	0.400132
	O468	O	0.010071	-0.209831	0.391813
	O469	O	0.076276	-0.291405	0.434367
	O470	O	0.075278	-0.209558	0.398965
	O471	O	0.119573	-0.210552	0.372958
	O472	O	0.012840	-0.291870	0.461662
	O473	O	0.056033	-0.041156	0.400246
	O474	O	0.010039	-0.041250	0.391904
	O475	O	0.119579	-0.042220	0.372898
	O476	O	0.075290	-0.041297	0.399010
	O477	O	0.122281	-0.291306	0.442537
	O478	O	0.003280	-0.125798	0.466284
	O479	O	0.129127	-0.376059	0.368291
	C480	C	0.103828	-0.285657	0.438978
	C481	C	0.108531	-0.375638	0.439178
	C482	C	0.103845	-0.465661	0.438754
	C483	C	0.094698	-0.465657	0.438172
	C484	C	0.090017	-0.375489	0.437872
	C485	C	0.094696	-0.285533	0.438341
	C486	C	0.080156	-0.375548	0.435473
	C487	C	0.118400	-0.375694	0.441545
	C488	C	0.053381	-0.375765	0.437853
	C489	C	0.043968	-0.376111	0.444108
	C490	C	0.039391	-0.286194	0.446286
	C491	C	0.030522	-0.286249	0.450667
	C492	C	0.025983	-0.376109	0.453060
	C493	C	0.030533	-0.466040	0.450765
	C494	C	0.039408	-0.465974	0.446379
	C495	C	0.016562	-0.375898	0.459282
	C496	C	0.052161	-0.125292	0.399103
	C497	C	0.042303	-0.125348	0.396649
	C498	C	0.037593	-0.035262	0.396328
	C499	C	0.028467	-0.035411	0.395725
	C500	C	0.023781	-0.125373	0.395392
	C501	C	0.028490	-0.215529	0.395637
	C502	C	0.037628	-0.215487	0.396206
	C503	C	0.013942	-0.125391	0.392929
	C504	C	0.078976	-0.125466	0.396417
	C505	C	0.088393	-0.125650	0.390195
	C506	C	0.092969	-0.215485	0.388056
	C507	C	0.101837	-0.215743	0.383801
	C508	C	0.106413	-0.126058	0.381450
	C509	C	0.101843	-0.036160	0.383789
	C510	C	0.092976	-0.035984	0.388013
	C511	C	0.115873	-0.126182	0.375400
	H512	H	0.105263	-0.286006	0.382212
	H513	H	0.089546	-0.285511	0.389679
	H514	H	0.107350	-0.215511	0.439268
	H515	H	0.091151	-0.215483	0.438233
	H516	H	0.065211	-0.375320	0.389113
	H517	H	0.067332	-0.125941	0.445447
	H518	H	0.002768	-0.126000	0.451645
	H519	H	0.129720	-0.376497	0.382785
	H520	H	0.041211	-0.285569	0.396399
	H521	H	0.024943	-0.285518	0.395377
	H522	H	0.027106	-0.215831	0.452316
	H523	H	0.042789	-0.216093	0.444639
	H524	H	0.024930	0.034462	0.395546
	H525	H	0.041111	0.034619	0.396537
	H526	H	0.042824	-0.536077	0.444811
	H527	H	0.027129	-0.536059	0.452550
	H528	H	0.091167	-0.535821	0.437909
	H529	H	0.107389	-0.535673	0.438854
	H530	H	0.089546	0.034259	0.389647
	H531	H	0.105273	0.033982	0.382199
	Al532	Al	0.066160	-0.000727	0.417338
	Al533	Al	0.066170	0.249429	0.417316
	Al534	Al	-0.000063	0.249912	0.374771
	Al535	Al	-0.000034	-0.000314	0.374595
	O536	O	0.076285	0.039982	0.434516
	O537	O	0.065827	0.124353	0.403716
	O538	O	0.066636	0.374168	0.430827
	O539	O	0.122349	0.040116	0.442438
	O540	O	0.057097	0.040647	0.435537
	O541	O	0.012818	0.039990	0.461598
	O542	O	0.057039	0.208913	0.435419
	O543	O	0.056071	0.290298	0.400159
	O544	O	0.010072	0.290411	0.391777
	O545	O	0.076319	0.208162	0.434527
	O546	O	0.075319	0.290306	0.399076
	O547	O	0.119572	0.289658	0.372775
	O548	O	0.012773	0.208238	0.461473
	O549	O	0.056089	0.458525	0.400061
	O550	O	0.010065	0.458561	0.391856
	O551	O	0.119585	0.457851	0.372870
	O552	O	0.075278	0.458522	0.398907
	O553	O	0.122301	0.208451	0.442384
	O554	O	0.003292	0.374296	0.466302
	O555	O	0.129095	0.123941	0.368370
	C556	C	0.103872	0.213732	0.438658
	C557	C	0.108577	0.123814	0.439064
	C558	C	0.103899	0.033632	0.438641
	C559	C	0.094758	0.033796	0.438124
	C560	C	0.090047	0.123792	0.437837
	C561	C	0.094731	0.213941	0.438164
	C562	C	0.080171	0.124007	0.435549
	C563	C	0.118433	0.124216	0.441401
	C564	C	0.053377	0.124717	0.437986
	C565	C	0.043945	0.124384	0.444148
	C566	C	0.039349	0.214130	0.446181
	C567	C	0.030446	0.213979	0.450440
	C568	C	0.025936	0.124049	0.452911
	C569	C	0.030519	0.034257	0.450710
	C570	C	0.039419	0.034399	0.446455
	C571	C	0.016487	0.124272	0.458961
	C572	C	0.052181	0.374409	0.399061
	C573	C	0.042332	0.374482	0.396662
	C574	C	0.037624	0.464389	0.396275
	C575	C	0.028478	0.464389	0.395665
	C576	C	0.023809	0.374333	0.395335
	C577	C	0.028516	0.284452	0.395621
	C578	C	0.037653	0.284591	0.396236
	C579	C	0.013951	0.374407	0.392948
	C580	C	0.079013	0.374334	0.396553
	C581	C	0.088427	0.374178	0.390384
	C582	C	0.093017	0.284246	0.388267
	C583	C	0.101909	0.284066	0.384036
	C584	C	0.106482	0.373847	0.381660
	C585	C	0.101914	0.463752	0.383923
	C586	C	0.093021	0.463848	0.388190
	C587	C	0.115878	0.373767	0.375341
	H588	H	0.105322	0.213831	0.382451
	H589	H	0.089614	0.214140	0.390102
	H590	H	0.107420	0.283889	0.438856
	H591	H	0.091214	0.284129	0.438056
	H592	H	0.065366	0.125003	0.389134
	H593	H	0.067321	0.374489	0.445329
	H594	H	0.002658	0.374909	0.451740
	H595	H	0.129520	0.123707	0.382937
	H596	H	0.041154	0.214298	0.396306
	H597	H	0.025001	0.214278	0.395244
	H598	H	0.027020	0.284163	0.452068
	H599	H	0.042740	0.284603	0.444639
	H600	H	0.024954	0.534453	0.395361
	H601	H	0.041150	0.534597	0.396372
	H602	H	0.042863	-0.035685	0.445101
	H603	H	0.027164	-0.035983	0.452498
	H604	H	0.091233	-0.036084	0.438025
	H605	H	0.107431	-0.036576	0.438874
	H606	H	0.089610	0.534131	0.389887
	H607	H	0.105338	0.533954	0.382248
	Al608	Al	0.069946	-0.500916	0.522407
	Al609	Al	0.069965	-0.250560	0.522376
	Al610	Al	0.003755	-0.250829	0.479890
	Al611	Al	0.003732	-0.500641	0.479933
	O612	O	0.080068	-0.460183	0.539503
	O613	O	0.069557	-0.375897	0.508734
	O614	O	0.070335	-0.125511	0.535977
	O615	O	0.126041	-0.459096	0.549024
	O616	O	0.060852	-0.459565	0.540608
	O617	O	0.016612	-0.459664	0.566580
	O618	O	0.060813	-0.291423	0.540487
	O619	O	0.059905	-0.209027	0.504973
	O620	O	0.013896	-0.209881	0.496812
	O621	O	0.080027	-0.291867	0.539618
	O622	O	0.079102	-0.210246	0.504219
	O623	O	0.123329	-0.209477	0.477964
	O624	O	0.016604	-0.291323	0.566797
	O625	O	0.059841	-0.040769	0.505323
	O626	O	0.013851	-0.041615	0.496833
	O627	O	0.123305	-0.041421	0.477898
	O628	O	0.079072	-0.042092	0.504194
	O629	O	0.125999	-0.290796	0.549156
	O630	O	0.007065	-0.125575	0.571223
	O631	O	0.132821	-0.375689	0.473240
	C632	C	0.107570	-0.285548	0.544888
	C633	C	0.112297	-0.375354	0.545303
	C634	C	0.107626	-0.465489	0.544852
	C635	C	0.098489	-0.465696	0.543929
	C636	C	0.093761	-0.375815	0.543439
	C637	C	0.098444	-0.285779	0.544008
	C638	C	0.083927	-0.376027	0.540707
	C639	C	0.122144	-0.375039	0.547919
	C640	C	0.057142	-0.375633	0.543057
	C641	C	0.047712	-0.375574	0.549159
	C642	C	0.043129	-0.285569	0.551351
	C643	C	0.034253	-0.285572	0.555655
	C644	C	0.029715	-0.375512	0.557943
	C645	C	0.034292	-0.465523	0.555798
	C646	C	0.043179	-0.465565	0.551537
	C647	C	0.020292	-0.375486	0.564188
	C648	C	0.056004	-0.124985	0.504123
	C649	C	0.046123	-0.125276	0.501708
	C650	C	0.041406	-0.035377	0.501458
	C651	C	0.032272	-0.035368	0.500839
	C652	C	0.027606	-0.125322	0.500418
	C653	C	0.032313	-0.215189	0.500754
	C654	C	0.041449	-0.215094	0.501368
	C655	C	0.017735	-0.125553	0.497926
	C656	C	0.082777	-0.125969	0.501776
	C657	C	0.092207	-0.126092	0.495568
	C658	C	0.096810	-0.215730	0.493424
	C659	C	0.105685	-0.215734	0.489130
	C660	C	0.110217	-0.125775	0.486756
	C661	C	0.105632	-0.036040	0.488991
	C662	C	0.096749	-0.036236	0.493260
	C663	C	0.119629	-0.125401	0.480520
	H664	H	0.109101	-0.285692	0.487511
	H665	H	0.093416	-0.285752	0.495107
	H666	H	0.111048	-0.215593	0.545218
	H667	H	0.094894	-0.215807	0.543663
	H668	H	0.068997	-0.376218	0.494231
	H669	H	0.070963	-0.125549	0.550504
	H670	H	0.006459	-0.125223	0.556641
	H671	H	0.133328	-0.375370	0.487798
	H672	H	0.044999	-0.285083	0.501502
	H673	H	0.028820	-0.285602	0.500372
	H674	H	0.030795	-0.215558	0.557176
	H675	H	0.046507	-0.215064	0.549558
	H676	H	0.028720	0.034569	0.500535
	H677	H	0.044904	0.034992	0.501622
	H678	H	0.046620	-0.535717	0.549905
	H679	H	0.030875	-0.535758	0.557410
	H680	H	0.094980	-0.536078	0.543504
	H681	H	0.111201	-0.535103	0.545103
	H682	H	0.093294	0.034050	0.494828
	H683	H	0.109021	0.034077	0.487269
	Al684	Al	0.069946	-0.000672	0.522441
	Al685	Al	0.069983	0.249206	0.522414
	Al686	Al	0.003719	0.249357	0.479786
	Al687	Al	0.003681	-0.000625	0.479750
	O688	O	0.080131	0.039528	0.539545
	O689	O	0.069588	0.124251	0.508819
	O690	O	0.070377	0.374307	0.535971
	O691	O	0.126058	0.040967	0.549117
	O692	O	0.060851	0.040743	0.540733
	O693	O	0.016560	0.040144	0.566504
	O694	O	0.060790	0.209212	0.540535
	O695	O	0.059911	0.290576	0.504939
	O696	O	0.013863	0.289521	0.496873
	O697	O	0.080029	0.207764	0.539859
	O698	O	0.079150	0.289474	0.504438
	O699	O	0.123313	0.290094	0.477786
	O700	O	0.016585	0.208591	0.566715
	O701	O	0.059810	0.458841	0.505330
	O702	O	0.013825	0.457860	0.497077
	O703	O	0.123334	0.458237	0.477924
	O704	O	0.079076	0.457522	0.504260
	O705	O	0.126040	0.209407	0.549095
	O706	O	0.007062	0.374545	0.571258
	O707	O	0.132818	0.124503	0.473159
	C708	C	0.107609	0.214609	0.545042
	C709	C	0.112325	0.124949	0.545345
	C710	C	0.107671	0.034895	0.544798
	C711	C	0.098543	0.034618	0.543921
	C712	C	0.093817	0.124189	0.543540
	C713	C	0.098468	0.214383	0.544182
	C714	C	0.083956	0.123819	0.540849
	C715	C	0.122164	0.125218	0.547983
	C716	C	0.057127	0.124876	0.543118
	C717	C	0.047741	0.124723	0.549456
	C718	C	0.043143	0.214539	0.551645
	C719	C	0.034272	0.214388	0.555889
	C720	C	0.029709	0.124378	0.558115
	C721	C	0.034323	0.034512	0.556129
	C722	C	0.043193	0.034708	0.551845
	C723	C	0.020289	0.124516	0.564146
	C724	C	0.055955	0.374426	0.504150
	C725	C	0.046119	0.374226	0.501783
	C726	C	0.041404	0.463997	0.501461
	C727	C	0.032255	0.463855	0.500891
	C728	C	0.027579	0.373800	0.500518
	C729	C	0.032300	0.283921	0.500726
	C730	C	0.041450	0.284119	0.501342
	C731	C	0.017740	0.373565	0.498090
	C732	C	0.082812	0.373550	0.501811
	C733	C	0.092209	0.373563	0.495584
	C734	C	0.096811	0.283799	0.493385
	C735	C	0.105679	0.284101	0.489028
	C736	C	0.110216	0.373987	0.486627
	C737	C	0.105600	0.463700	0.488841
	C738	C	0.096734	0.463425	0.493166
	C739	C	0.119631	0.374164	0.480353
	H740	H	0.109154	0.214039	0.487534
	H741	H	0.093448	0.213455	0.495268
	H742	H	0.111121	0.284420	0.545596
	H743	H	0.094928	0.284304	0.544020
	H744	H	0.069104	0.124075	0.494203
	H745	H	0.070872	0.374093	0.550507
	H746	H	0.006472	0.374496	0.556681
	H747	H	0.133300	0.124789	0.487759
	H748	H	0.044960	0.214216	0.501450
	H749	H	0.028756	0.214018	0.500365
	H750	H	0.030830	0.284516	0.557520
	H751	H	0.046561	0.284510	0.550020
	H752	H	0.028745	0.534049	0.500709
	H753	H	0.044924	0.534091	0.501690
	H754	H	0.046651	-0.035466	0.550323
	H755	H	0.030916	-0.035537	0.557991
	H756	H	0.095018	-0.035374	0.543570
	H757	H	0.111192	-0.035055	0.545095
	H758	H	0.093290	0.533487	0.494872
	H759	H	0.108994	0.534025	0.487206
	Al760	Al	0.073209	-0.500204	0.629964
	Al761	Al	0.073235	-0.250941	0.629912
	Al762	Al	0.007449	-0.250467	0.584808
	Al763	Al	0.007475	-0.500293	0.584817
	O764	O	0.082021	-0.458818	0.650845
	O765	O	0.073092	-0.375725	0.616530
	O766	O	0.072955	-0.125420	0.643379
	O767	O	0.117020	-0.459322	0.726979
	O768	O	0.063776	-0.459366	0.647167
	O769	O	0.020197	-0.459503	0.675812
	O770	O	0.063763	-0.291087	0.647099
	O771	O	0.063495	-0.209521	0.611116
	O772	O	0.017516	-0.209505	0.602208
	O773	O	0.082032	-0.290969	0.650843
	O774	O	0.082676	-0.209548	0.613511
	O775	O	0.126265	-0.209121	0.584948
	O776	O	0.020151	-0.290913	0.675678
	O777	O	0.063458	-0.040887	0.611179
	O778	O	0.017517	-0.041191	0.602179
	O779	O	0.126225	-0.040550	0.584903
	O780	O	0.082629	-0.041364	0.613328
	O781	O	0.116983	-0.291047	0.727029
	O782	O	0.010685	-0.125167	0.678880
	O783	O	0.135493	-0.375133	0.581319
	C784	C	0.103089	-0.285916	0.696315
	C785	C	0.106684	-0.374944	0.703967
	C786	C	0.103133	-0.463975	0.696160
	C787	C	0.096172	-0.463777	0.680923
	C788	C	0.092563	-0.374848	0.673302
	C789	C	0.096126	-0.285813	0.681119
	C790	C	0.085021	-0.374812	0.657064
	C791	C	0.114075	-0.375418	0.720605
	C792	C	0.060149	-0.375239	0.649824
	C793	C	0.050847	-0.375173	0.656628
	C794	C	0.046356	-0.285286	0.659142
	C795	C	0.037601	-0.285256	0.664278
	C796	C	0.033131	-0.375059	0.666865
	C797	C	0.037635	-0.464843	0.664535
	C798	C	0.046389	-0.464950	0.659413
	C799	C	0.023820	-0.375206	0.673293
	C800	C	0.059600	-0.125195	0.610000
	C801	C	0.049761	-0.125148	0.607572
	C802	C	0.045050	-0.035220	0.607272
	C803	C	0.035913	-0.035386	0.606481
	C804	C	0.031252	-0.125522	0.605908
	C805	C	0.035968	-0.215458	0.606399
	C806	C	0.045092	-0.215259	0.607184
	C807	C	0.021411	-0.125347	0.603345
	C808	C	0.086332	-0.125277	0.611001
	C809	C	0.095653	-0.125196	0.604711
	C810	C	0.100170	-0.214713	0.602254
	C811	C	0.108911	-0.214566	0.597072
	C812	C	0.113346	-0.124626	0.594301
	C813	C	0.108846	-0.034945	0.596921
	C814	C	0.100101	-0.035232	0.602090
	C815	C	0.122621	-0.124846	0.587539
	H816	H	0.112337	-0.284439	0.595099
	H817	H	0.096827	-0.284414	0.604442
	H818	H	0.105759	-0.216486	0.702229
	H819	H	0.093372	-0.216759	0.675327
	H820	H	0.072507	-0.376280	0.601944
	H821	H	0.072495	-0.125215	0.657849
	H822	H	0.010408	-0.125572	0.664366
	H823	H	0.134972	-0.374874	0.595800
	H824	H	0.048638	-0.285150	0.607360
	H825	H	0.032444	-0.285552	0.606072
	H826	H	0.034190	-0.215460	0.666203
	H827	H	0.049745	-0.215698	0.656966
	H828	H	0.032358	0.034574	0.606159
	H829	H	0.048579	0.034811	0.607490
	H830	H	0.049791	-0.534647	0.657554
	H831	H	0.034254	-0.534513	0.666770
	H832	H	0.093512	-0.532839	0.675056
	H833	H	0.105844	-0.532989	0.701941
	H834	H	0.096685	0.034378	0.604093
	H835	H	0.112194	0.035044	0.594776
	Al836	Al	0.073190	-0.000070	0.629881
	Al837	Al	0.073203	0.248939	0.629913
	Al838	Al	0.007477	0.249547	0.584860
	Al839	Al	0.007441	-0.000441	0.584818
	O840	O	0.081972	0.040123	0.650786
	O841	O	0.073098	0.124709	0.616490
	O842	O	0.073061	0.374541	0.643337
	O843	O	0.116966	0.040048	0.727007
	O844	O	0.063744	0.040906	0.647022
	O845	O	0.020172	0.040362	0.675828
	O846	O	0.063692	0.209134	0.646879
	O847	O	0.063543	0.290793	0.610977
	O848	O	0.017602	0.290188	0.601957
	O849	O	0.081986	0.207872	0.650975
	O850	O	0.082658	0.290693	0.613371
	O851	O	0.126249	0.290785	0.584882
	O852	O	0.020145	0.208695	0.675868
	O853	O	0.063528	0.459164	0.611211
	O854	O	0.017531	0.458370	0.602170
	O855	O	0.126210	0.459291	0.584850
	O856	O	0.082636	0.459074	0.613402
	O857	O	0.116978	0.208354	0.726977
	O858	O	0.010677	0.374726	0.678928
	O859	O	0.135512	0.125008	0.581385
	C860	C	0.103082	0.212720	0.696177
	C861	C	0.106630	0.123888	0.703995
	C862	C	0.103105	0.034859	0.696172
	C863	C	0.096142	0.034868	0.680998
	C864	C	0.092544	0.123848	0.673336
	C865	C	0.096127	0.212853	0.680979
	C866	C	0.084989	0.123869	0.657139
	C867	C	0.114038	0.124221	0.720552
	C868	C	0.060104	0.124897	0.649669
	C869	C	0.050834	0.124834	0.656602
	C870	C	0.046374	0.214730	0.659401
	C871	C	0.037627	0.214589	0.664635
	C872	C	0.033142	0.124707	0.667091
	C873	C	0.037612	0.034809	0.664388
	C874	C	0.046355	0.035054	0.659136
	C875	C	0.023819	0.124570	0.673422
	C876	C	0.059647	0.374982	0.610020
	C877	C	0.049808	0.375128	0.607667
	C878	C	0.045071	0.464744	0.607461
	C879	C	0.035937	0.464672	0.606670
	C880	C	0.031285	0.374683	0.605973
	C881	C	0.036018	0.284970	0.606248
	C882	C	0.045153	0.285070	0.607044
	C883	C	0.021426	0.374330	0.603311
	C884	C	0.086306	0.374611	0.610985
	C885	C	0.095631	0.374814	0.604629
	C886	C	0.100121	0.285041	0.602144
	C887	C	0.108869	0.285320	0.597048
	C888	C	0.113329	0.375274	0.594346
	C889	C	0.108833	0.464943	0.596923
	C890	C	0.100086	0.464630	0.602006
	C891	C	0.122620	0.374963	0.587584
	H892	H	0.112276	0.215883	0.595227
	H893	H	0.096735	0.215513	0.604237
	H894	H	0.105755	0.281824	0.702053
	H895	H	0.093473	0.281942	0.675075
	H896	H	0.072474	0.124544	0.601922
	H897	H	0.072699	0.374291	0.657865
	H898	H	0.010353	0.374200	0.664458
	H899	H	0.135097	0.125397	0.595880
	H900	H	0.048696	0.215353	0.607016
	H901	H	0.032526	0.214932	0.605646
	H902	H	0.034248	0.284112	0.666790
	H903	H	0.049739	0.284556	0.657396
	H904	H	0.032360	0.534452	0.606390
	H905	H	0.048575	0.534695	0.607770
	H906	H	0.049738	-0.034614	0.656968
	H907	H	0.034215	-0.035040	0.666343
	H908	H	0.093489	-0.034124	0.675014
	H909	H	0.105786	-0.034275	0.701980
	H910	H	0.096681	0.534050	0.603981
	H911	H	0.112202	0.534606	0.594828
	Al912	Al	0.062480	-0.500938	0.812402
	Al913	Al	0.062513	-0.250904	0.812464
	Al914	Al	0.010727	-0.249788	0.692345
	Al915	Al	0.010708	-0.500197	0.692267
	O916	O	0.070596	-0.460382	0.835199
	O917	O	0.063245	-0.375929	0.799283
	O918	O	0.061837	-0.125823	0.825518
	O919	O	0.105520	-0.460545	0.911547
	O920	O	0.052606	-0.459529	0.827260
	O921	O	0.009973	-0.460065	0.860269
	O922	O	0.052553	-0.291085	0.827164
	O923	O	0.054481	-0.209970	0.789600
	O924	O	0.019537	-0.209755	0.713332
	O925	O	0.070568	-0.292069	0.835258
	O926	O	0.072460	-0.210288	0.797652
	O927	O	0.115129	-0.209925	0.764639
	O928	O	0.009914	-0.291723	0.860224
	O929	O	0.054470	-0.042082	0.789581
	O930	O	0.019481	-0.041829	0.713416
	O931	O	0.115079	-0.041678	0.764541
	O932	O	0.072452	-0.041820	0.797571
	O933	O	0.105450	-0.292400	0.911549
	O934	O	0.000770	-0.125516	0.861961
	O935	O	0.124244	-0.375607	0.762934
	C936	C	0.091324	-0.287541	0.881410
	C937	C	0.094939	-0.376606	0.889057
	C938	C	0.091365	-0.465437	0.881259
	C939	C	0.084440	-0.465370	0.866068
	C940	C	0.080876	-0.376355	0.858292
	C941	C	0.084389	-0.287461	0.866236
	C942	C	0.073482	-0.376098	0.841665
	C943	C	0.102475	-0.376520	0.905316
	C944	C	0.049014	-0.375615	0.829996
	C945	C	0.039903	-0.375263	0.837381
	C946	C	0.035553	-0.285944	0.840570
	C947	C	0.026998	-0.286298	0.847025
	C948	C	0.022659	-0.375577	0.850224
	C949	C	0.027011	-0.464803	0.847046
	C950	C	0.035572	-0.464476	0.840575
	C951	C	0.013529	-0.375656	0.857543
	C952	C	0.051553	-0.125935	0.783176
	C953	C	0.044131	-0.125897	0.766562
	C954	C	0.040549	-0.036824	0.758858
	C955	C	0.033599	-0.036657	0.743637
	C956	C	0.030034	-0.125609	0.735884
	C957	C	0.033649	-0.214714	0.743465
	C958	C	0.040600	-0.214808	0.758710
	C959	C	0.022504	-0.125641	0.719610
	C960	C	0.076028	-0.126078	0.794829
	C961	C	0.085155	-0.125975	0.787498
	C962	C	0.089512	-0.215180	0.784357
	C963	C	0.098075	-0.215106	0.777938
	C964	C	0.102389	-0.125973	0.774629
	C965	C	0.098026	-0.036924	0.777696
	C966	C	0.089472	-0.036981	0.784147
	C967	C	0.111523	-0.125658	0.767324
	H968	H	0.101425	-0.283860	0.775393
	H969	H	0.086184	-0.283654	0.787027
	H970	H	0.093953	-0.218791	0.887559
	H971	H	0.081692	-0.218581	0.860339
	H972	H	0.064230	-0.375323	0.785064
	H973	H	0.061124	-0.125122	0.839856
	H974	H	0.001501	-0.125840	0.847515
	H975	H	0.123308	-0.375416	0.777235
	H976	H	0.043331	-0.283960	0.764508
	H977	H	0.031019	-0.283864	0.737437
	H978	H	0.023654	-0.217685	0.849615
	H979	H	0.038869	-0.216948	0.838048
	H980	H	0.030917	0.032570	0.737802
	H981	H	0.043208	0.032488	0.764807
	H982	H	0.038939	-0.533080	0.838035
	H983	H	0.023706	-0.533662	0.849653
	H984	H	0.081771	-0.534233	0.860017
	H985	H	0.094067	-0.534657	0.887207
	H986	H	0.086117	0.031718	0.786586
	H987	H	0.101317	0.031550	0.774959
	Al988	Al	0.062505	-0.000916	0.812335
	Al989	Al	0.062505	0.249323	0.812428
	Al990	Al	0.010713	0.249960	0.692384
	Al991	Al	0.010714	-0.000678	0.692408
	O992	O	0.070567	0.040256	0.835238
	O993	O	0.063186	0.124324	0.799226
	O994	O	0.061783	0.374277	0.825518
	O995	O	0.105541	0.039741	0.911409
	O996	O	0.052603	0.039541	0.827216
	O997	O	0.009963	0.039737	0.860348
	O998	O	0.052582	0.207919	0.827185
	O999	O	0.054468	0.290644	0.789536
	O1000	O	0.019523	0.290608	0.713303
	O1001	O	0.070543	0.208453	0.835320
	O1002	O	0.072435	0.289833	0.797621
	O1003	O	0.115064	0.290201	0.764661
	O1004	O	0.009917	0.208138	0.860335
	O1005	O	0.054426	0.458514	0.789598
	O1006	O	0.019475	0.458670	0.713393
	O1007	O	0.115067	0.458578	0.764635
	O1008	O	0.072405	0.458377	0.797475
	O1009	O	0.105466	0.207807	0.911627
	O1010	O	0.000753	0.374237	0.861921
	O1011	O	0.124234	0.124282	0.762949
	C1012	C	0.091322	0.213008	0.881497
	C1013	C	0.094956	0.123828	0.889049
	C1014	C	0.091405	0.034941	0.881247
	C1015	C	0.084458	0.035028	0.866066
	C1016	C	0.080866	0.124183	0.858361
	C1017	C	0.084375	0.213111	0.866295
	C1018	C	0.073476	0.124231	0.841675
	C1019	C	0.102503	0.123873	0.905260
	C1020	C	0.049032	0.123786	0.830018
	C1021	C	0.039903	0.123903	0.837390
	C1022	C	0.035568	0.213173	0.840523
	C1023	C	0.026997	0.213289	0.846962
	C1024	C	0.022658	0.124087	0.850261
	C1025	C	0.026992	0.034717	0.847068
	C1026	C	0.035549	0.034682	0.840573
	C1027	C	0.013531	0.124033	0.857629
	C1028	C	0.051504	0.374416	0.783146
	C1029	C	0.044126	0.374573	0.766473
	C1030	C	0.040538	0.463423	0.758750
	C1031	C	0.033590	0.463465	0.743573
	C1032	C	0.030029	0.374482	0.735777
	C1033	C	0.033659	0.285491	0.743396
	C1034	C	0.040601	0.285566	0.758589
	C1035	C	0.022479	0.374751	0.719586
	C1036	C	0.075993	0.373956	0.794796
	C1037	C	0.085129	0.374033	0.787524
	C1038	C	0.089494	0.284887	0.784351
	C1039	C	0.098045	0.284797	0.777911
	C1040	C	0.102361	0.374147	0.774680
	C1041	C	0.097979	0.463344	0.777741
	C1042	C	0.089412	0.463444	0.784189
	C1043	C	0.111498	0.374403	0.767395
	H1044	H	0.101360	0.215845	0.775277
	H1045	H	0.086188	0.215980	0.786926
	H1046	H	0.093952	0.281940	0.887534
	H1047	H	0.081638	0.282393	0.860517
	H1048	H	0.063946	0.124929	0.784979
	H1049	H	0.061040	0.374639	0.839838
	H1050	H	0.001633	0.374186	0.847637
	H1051	H	0.123311	0.124136	0.777215
	H1052	H	0.043309	0.216414	0.764474
	H1053	H	0.031010	0.216424	0.737450
	H1054	H	0.023668	0.282216	0.849516
	H1055	H	0.038939	0.282022	0.837925
	H1056	H	0.030851	0.532434	0.737783
	H1057	H	0.043188	0.532478	0.764823
	H1058	H	0.038890	-0.034168	0.838096
	H1059	H	0.023670	-0.034196	0.849748
	H1060	H	0.081793	-0.033863	0.860065
	H1061	H	0.094113	-0.034094	0.887044
	H1062	H	0.086028	0.532248	0.786764
	H1063	H	0.101302	0.532174	0.775023
	Al1064	Al	0.051802	-0.501967	0.995144
	Al1065	Al	0.051782	-0.251070	0.995206
	Al1066	Al	0.000028	-0.250610	0.875019
	Al1067	Al	0.000028	-0.500694	0.875064
	O1068	O	0.061519	-0.460780	1.013897
	O1069	O	0.052034	-0.376347	0.981667
	O1070	O	0.051814	-0.126425	1.008600
	O1071	O	0.107456	-0.460178	1.022954
	O1072	O	0.042338	-0.460358	1.011632
	O1073	O	-0.001202	-0.460486	1.040945
	O1074	O	0.042336	-0.291903	1.011652
	O1075	O	0.043006	-0.209914	0.974205
	O1076	O	0.008053	-0.209691	0.897880
	O1077	O	0.061437	-0.292340	1.014192
	O1078	O	0.061324	-0.210319	0.978318
	O1079	O	0.104804	-0.210249	0.948920
	O1080	O	-0.001212	-0.291870	1.040907
	O1081	O	0.042980	-0.041855	0.974256
	O1082	O	0.008066	-0.041762	0.897899
	O1083	O	0.104799	-0.042083	0.948878
	O1084	O	0.061311	-0.042028	0.978281
	O1085	O	0.107430	-0.292079	1.023052
	O1086	O	-0.010491	-0.126280	1.044445
	O1087	O	0.114367	-0.376476	0.946017
	C1088	C	0.089001	-0.286296	1.018663
	C1089	C	0.093713	-0.376118	1.019218
	C1090	C	0.089036	-0.465919	1.018752
	C1091	C	0.079902	-0.465972	1.017996
	C1092	C	0.075200	-0.376115	1.017610
	C1093	C	0.079871	-0.286349	1.017902
	C1094	C	0.065367	-0.376384	1.015125
	C1095	C	0.103558	-0.375943	1.021828
	C1096	C	0.038687	-0.376191	1.014172
	C1097	C	0.029366	-0.376225	1.020624
	C1098	C	0.024871	-0.286409	1.023199
	C1099	C	0.016133	-0.286197	1.028515
	C1100	C	0.011694	-0.376114	1.031311
	C1101	C	0.016161	-0.465962	1.028472
	C1102	C	0.024905	-0.466081	1.023187
	C1103	C	0.002421	-0.376050	1.038206
	C1104	C	0.039996	-0.126024	0.967992
	C1105	C	0.032470	-0.125993	0.951734
	C1106	C	0.028905	-0.036952	0.943931
	C1107	C	0.021952	-0.036856	0.928743
	C1108	C	0.018396	-0.125804	0.920949
	C1109	C	0.021929	-0.214848	0.928848
	C1110	C	0.028878	-0.214930	0.944061
	C1111	C	0.010959	-0.125731	0.904355
	C1112	C	0.064941	-0.126243	0.975533
	C1113	C	0.074211	-0.126332	0.968684
	C1114	C	0.078698	-0.216063	0.966065
	C1115	C	0.087426	-0.215908	0.960729
	C1116	C	0.091849	-0.126124	0.957890
	C1117	C	0.087364	-0.036414	0.960399
	C1118	C	0.078634	-0.036537	0.965753
	C1119	C	0.101147	-0.126252	0.951392
	H1120	H	0.090828	-0.285480	0.958726
	H1121	H	0.075341	-0.285908	0.968190
	H1122	H	0.092517	-0.216185	1.018903
	H1123	H	0.076334	-0.216471	1.017633
	H1124	H	0.052597	-0.375976	0.967233
	H1125	H	0.052177	-0.126166	1.023128
	H1126	H	-0.010109	-0.126520	1.029841
	H1127	H	0.114922	-0.376394	0.960515
	H1128	H	0.031472	-0.284114	0.950191
	H1129	H	0.019194	-0.283882	0.923067
	H1130	H	0.012745	-0.216528	1.030565
	H1131	H	0.028273	-0.216809	1.021154
	H1132	H	0.019270	0.032044	0.922830
	H1133	H	0.031567	0.032071	0.949914
	H1134	H	0.028279	-0.535572	1.021057
	H1135	H	0.012788	-0.535676	1.030512
	H1136	H	0.076383	-0.535862	1.017794
	H1137	H	0.092572	-0.536053	1.019103
	H1138	H	0.075207	0.033273	0.967658
	H1139	H	0.090712	0.033079	0.958127
	Al1140	Al	0.051798	-0.001905	0.995247
	Al1141	Al	0.051775	0.248749	0.995329
	Al1142	Al	0.000001	0.249229	0.875000
	Al1143	Al	0.000033	-0.000923	0.875076
	O1144	O	0.061516	0.038980	1.013983
	O1145	O	0.052013	0.123831	0.981865
	O1146	O	0.051832	0.373618	1.008602
	O1147	O	0.107490	0.040039	1.022682
	O1148	O	0.042342	0.039194	1.011836
	O1149	O	-0.001211	0.039395	1.040761
	O1150	O	0.042325	0.207468	1.011796
	O1151	O	0.042966	0.289516	0.974320
	O1152	O	0.008071	0.289679	0.897829
	O1153	O	0.061449	0.207145	1.014271
	O1154	O	0.061304	0.288992	0.978277
	O1155	O	0.104855	0.289419	0.949184
	O1156	O	-0.001216	0.207628	1.040963
	O1157	O	0.042932	0.457514	0.974292
	O1158	O	0.008041	0.457846	0.897956
	O1159	O	0.104807	0.457937	0.949008
	O1160	O	0.061260	0.457531	0.977947
	O1161	O	0.107419	0.208295	1.023034
	O1162	O	-0.010485	0.373825	1.044546
	O1163	O	0.114347	0.123242	0.946022
	C1164	C	0.089008	0.213644	1.018825
	C1165	C	0.093726	0.123947	1.019129
	C1166	C	0.089063	0.033992	1.018629
	C1167	C	0.079931	0.033823	1.017897
	C1168	C	0.075212	0.123540	1.017607
	C1169	C	0.079885	0.213593	1.018095
	C1170	C	0.065366	0.123264	1.015192
	C1171	C	0.103567	0.123983	1.021756
	C1172	C	0.038677	0.123486	1.014272
	C1173	C	0.029338	0.123591	1.020634
	C1174	C	0.024865	0.213401	1.023244
	C1175	C	0.016132	0.213331	1.028478
	C1176	C	0.011655	0.123520	1.031170
	C1177	C	0.016124	0.033674	1.028483
	C1178	C	0.024864	0.033793	1.023271
	C1179	C	0.002389	0.123690	1.038072
	C1180	C	0.039974	0.373613	0.968033
	C1181	C	0.032418	0.373418	0.951751
	C1182	C	0.028811	0.462559	0.944055
	C1183	C	0.021904	0.462689	0.928773
	C1184	C	0.018403	0.373630	0.920880
	C1185	C	0.021974	0.284468	0.928637
	C1186	C	0.028876	0.284395	0.943920
	C1187	C	0.010976	0.373728	0.904274
	C1188	C	0.064910	0.373265	0.975413
	C1189	C	0.074170	0.373036	0.968461
	C1190	C	0.078694	0.283239	0.965995
	C1191	C	0.087430	0.283296	0.960756
	C1192	C	0.091847	0.373336	0.957891
	C1193	C	0.087318	0.463125	0.960236
	C1194	C	0.078581	0.462943	0.965481
	C1195	C	0.101182	0.373518	0.951573
	H1196	H	0.090865	0.213696	0.958968
	H1197	H	0.075344	0.213466	0.968325
	H1198	H	0.092544	0.283600	1.019262
	H1199	H	0.076345	0.283536	1.017961
	H1200	H	0.052436	0.123846	0.967295
	H1201	H	0.052175	0.373552	1.023076
	H1202	H	-0.010090	0.373880	1.030096
	H1203	H	0.114756	0.123289	0.960435
	H1204	H	0.031576	0.215316	0.949825
	H1205	H	0.019320	0.215486	0.922634
	H1206	H	0.012728	0.283079	1.030570
	H1207	H	0.028252	0.283057	1.021285
	H1208	H	0.019201	0.531787	0.922847
	H1209	H	0.031450	0.531331	0.950130
	H1210	H	0.028263	-0.035517	1.021263
	H1211	H	0.012748	-0.035894	1.030641
	H1212	H	0.076420	-0.036157	1.017591
	H1213	H	0.092588	-0.036037	1.018881
	H1214	H	0.075158	0.532607	0.967464
	H1215	H	0.090697	0.532434	0.958030
	Al1216	Al	0.183769	-0.500674	0.082586
	Al1217	Al	0.183760	-0.250447	0.082646
	Al1218	Al	0.117519	-0.250731	0.040155
	Al1219	Al	0.117553	-0.501048	0.040271
	O1220	O	0.193910	-0.459880	0.099743
	O1221	O	0.183348	-0.375519	0.069022
	O1222	O	0.184190	-0.125924	0.096247
	O1223	O	0.239892	-0.459096	0.108051
	O1224	O	0.174626	-0.459506	0.100740
	O1225	O	0.130405	-0.460006	0.127165
	O1226	O	0.174603	-0.291353	0.100676
	O1227	O	0.173645	-0.209378	0.065431
	O1228	O	0.127647	-0.210141	0.057335
	O1229	O	0.193839	-0.291478	0.099908
	O1230	O	0.192876	-0.209480	0.064403
	O1231	O	0.237189	-0.209410	0.038583
	O1232	O	0.130398	-0.291674	0.127032
	O1233	O	0.173665	-0.041406	0.065464
	O1234	O	0.127620	-0.041964	0.057496
	O1235	O	0.237136	-0.041310	0.038441
	O1236	O	0.192890	-0.041286	0.064327
	O1237	O	0.239837	-0.290709	0.108084
	O1238	O	0.120831	-0.125511	0.131535
	O1239	O	0.246718	-0.376097	0.033875
	C1240	C	0.221432	-0.285244	0.104243
	C1241	C	0.226119	-0.375194	0.104486
	C1242	C	0.221442	-0.465232	0.104029
	C1243	C	0.212302	-0.465390	0.103475
	C1244	C	0.207614	-0.375368	0.103191
	C1245	C	0.212302	-0.285418	0.103680
	C1246	C	0.197737	-0.375528	0.100900
	C1247	C	0.235980	-0.375070	0.106946
	C1248	C	0.170950	-0.375451	0.103254
	C1249	C	0.161506	-0.375600	0.109460
	C1250	C	0.156911	-0.285693	0.111644
	C1251	C	0.148043	-0.285860	0.115925
	C1252	C	0.143498	-0.375876	0.118297
	C1253	C	0.148094	-0.465711	0.116114
	C1254	C	0.156958	-0.465595	0.111811
	C1255	C	0.134080	-0.375895	0.124598
	C1256	C	0.169771	-0.125299	0.064324
	C1257	C	0.159902	-0.125331	0.062056
	C1258	C	0.155185	-0.035390	0.061798
	C1259	C	0.146050	-0.035668	0.061299
	C1260	C	0.141369	-0.125665	0.060958
	C1261	C	0.146079	-0.215334	0.061172
	C1262	C	0.155207	-0.215195	0.061689
	C1263	C	0.131518	-0.126015	0.058514
	C1264	C	0.196576	-0.125491	0.061828
	C1265	C	0.206017	-0.125868	0.055808
	C1266	C	0.210573	-0.215745	0.053558
	C1267	C	0.219465	-0.215570	0.049315
	C1268	C	0.224024	-0.125572	0.047079
	C1269	C	0.219440	-0.035833	0.049257
	C1270	C	0.210556	-0.035860	0.053498
	C1271	C	0.233470	-0.125561	0.040982
	H1272	H	0.222890	-0.285867	0.047834
	H1273	H	0.207159	-0.286051	0.055254
	H1274	H	0.224952	-0.215217	0.104482
	H1275	H	0.208775	-0.215273	0.103613
	H1276	H	0.182608	-0.375145	0.054484
	H1277	H	0.184870	-0.125615	0.110801
	H1278	H	0.119988	-0.125624	0.117071
	H1279	H	0.247349	-0.376154	0.048284
	H1280	H	0.158739	-0.285448	0.061897
	H1281	H	0.142567	-0.285458	0.061000
	H1282	H	0.144588	-0.215903	0.117461
	H1283	H	0.160297	-0.215386	0.109816
	H1284	H	0.142482	0.034296	0.061239
	H1285	H	0.158710	0.034513	0.062114
	H1286	H	0.160402	-0.535540	0.110140
	H1287	H	0.144682	-0.535877	0.117749
	H1288	H	0.208768	-0.535496	0.103309
	H1289	H	0.224977	-0.535277	0.104164
	H1290	H	0.207127	0.034438	0.055147
	H1291	H	0.222841	0.034305	0.047695
	Al1292	Al	0.183771	-0.000567	0.082602
	Al1293	Al	0.183796	0.249413	0.082616
	Al1294	Al	0.117567	0.249000	0.040108
	Al1295	Al	0.117572	-0.000918	0.040080
	O1296	O	0.193884	0.039773	0.099793
	O1297	O	0.183386	0.124341	0.069034
	O1298	O	0.184140	0.374381	0.096252
	O1299	O	0.239901	0.040706	0.107869
	O1300	O	0.174661	0.039998	0.100831
	O1301	O	0.130378	0.040400	0.126953
	O1302	O	0.174636	0.208214	0.100762
	O1303	O	0.173675	0.290164	0.065447
	O1304	O	0.127682	0.289307	0.057210
	O1305	O	0.193881	0.208018	0.099828
	O1306	O	0.192890	0.290164	0.064404
	O1307	O	0.237187	0.289893	0.038659
	O1308	O	0.130375	0.208505	0.127000
	O1309	O	0.173639	0.458421	0.065516
	O1310	O	0.127662	0.457687	0.057458
	O1311	O	0.237151	0.457891	0.038431
	O1312	O	0.192846	0.458339	0.064190
	O1313	O	0.239851	0.208810	0.107891
	O1314	O	0.120831	0.374636	0.131550
	O1315	O	0.246684	0.123802	0.033903
	C1316	C	0.221442	0.214354	0.104202
	C1317	C	0.226144	0.124468	0.104488
	C1318	C	0.221478	0.034428	0.104145
	C1319	C	0.212343	0.034287	0.103588
	C1320	C	0.207632	0.123965	0.103270
	C1321	C	0.212296	0.214046	0.103644
	C1322	C	0.197772	0.123815	0.100866
	C1323	C	0.235996	0.124570	0.106829
	C1324	C	0.170954	0.123979	0.103356
	C1325	C	0.161545	0.123806	0.109609
	C1326	C	0.156955	0.213811	0.111766
	C1327	C	0.148079	0.214046	0.116044
	C1328	C	0.143504	0.124289	0.118406
	C1329	C	0.148101	0.034269	0.116282
	C1330	C	0.156975	0.033965	0.112030
	C1331	C	0.134089	0.124423	0.124506
	C1332	C	0.169771	0.374233	0.064550
	C1333	C	0.159924	0.373947	0.062133
	C1334	C	0.155211	0.463712	0.061833
	C1335	C	0.146081	0.463691	0.061240
	C1336	C	0.141412	0.373626	0.060937
	C1337	C	0.146114	0.283758	0.061052
	C1338	C	0.155257	0.283899	0.061625
	C1339	C	0.131558	0.373497	0.058452
	C1340	C	0.196573	0.374360	0.061880
	C1341	C	0.205992	0.374231	0.055764
	C1342	C	0.210587	0.284369	0.053692
	C1343	C	0.219469	0.284459	0.049470
	C1344	C	0.224023	0.374297	0.047178
	C1345	C	0.219442	0.464222	0.049348
	C1346	C	0.210554	0.464175	0.053543
	C1347	C	0.233461	0.374051	0.041022
	H1348	H	0.222921	0.214352	0.047921
	H1349	H	0.207198	0.214290	0.055393
	H1350	H	0.224949	0.284776	0.104466
	H1351	H	0.208762	0.283971	0.103548
	H1352	H	0.182947	0.125194	0.054416
	H1353	H	0.184496	0.374050	0.110741
	H1354	H	0.120186	0.374734	0.117013
	H1355	H	0.247211	0.124054	0.048402
	H1356	H	0.158821	0.213755	0.061769
	H1357	H	0.142571	0.213440	0.060553
	H1358	H	0.144633	0.284436	0.117516
	H1359	H	0.160364	0.283985	0.109935
	H1360	H	0.142572	0.533843	0.060920
	H1361	H	0.158697	0.534100	0.062064
	H1362	H	0.160395	-0.036084	0.110364
	H1363	H	0.144657	-0.035640	0.117937
	H1364	H	0.208858	-0.035978	0.103426
	H1365	H	0.224997	-0.035594	0.104397
	H1366	H	0.207114	0.534251	0.055095
	H1367	H	0.222849	0.534334	0.047697
	Al1368	Al	0.187515	-0.500619	0.187598
	Al1369	Al	0.187473	-0.250936	0.187514
	Al1370	Al	0.121270	-0.250501	0.145197
	Al1371	Al	0.121303	-0.500617	0.145275
	O1372	O	0.197658	-0.459830	0.204659
	O1373	O	0.187090	-0.375740	0.173978
	O1374	O	0.187924	-0.125786	0.201160
	O1375	O	0.243631	-0.459169	0.212826
	O1376	O	0.178402	-0.459501	0.205826
	O1377	O	0.134102	-0.460403	0.231789
	O1378	O	0.178403	-0.291431	0.205957
	O1379	O	0.177396	-0.210010	0.170238
	O1380	O	0.131358	-0.209462	0.162301
	O1381	O	0.197607	-0.291708	0.204621
	O1382	O	0.196609	-0.209876	0.169309
	O1383	O	0.240875	-0.209270	0.143391
	O1384	O	0.134045	-0.292083	0.231644
	O1385	O	0.177332	-0.041685	0.170502
	O1386	O	0.131417	-0.041121	0.162269
	O1387	O	0.240828	-0.040937	0.143229
	O1388	O	0.196574	-0.041759	0.169338
	O1389	O	0.243594	-0.290853	0.213062
	O1390	O	0.124607	-0.125892	0.236367
	O1391	O	0.250364	-0.375161	0.138667
	C1392	C	0.225185	-0.285278	0.208920
	C1393	C	0.229882	-0.375111	0.209350
	C1394	C	0.225214	-0.465114	0.209243
	C1395	C	0.216071	-0.465243	0.208668
	C1396	C	0.211377	-0.375409	0.208121
	C1397	C	0.216050	-0.285373	0.208324
	C1398	C	0.201533	-0.375686	0.205684
	C1399	C	0.239722	-0.375040	0.211892
	C1400	C	0.174710	-0.375580	0.208452
	C1401	C	0.165245	-0.375725	0.214495
	C1402	C	0.160662	-0.286078	0.216786
	C1403	C	0.151766	-0.286246	0.220955
	C1404	C	0.147214	-0.376206	0.223132
	C1405	C	0.151807	-0.465960	0.220942
	C1406	C	0.160705	-0.465803	0.216738
	C1407	C	0.137747	-0.376310	0.229172
	C1408	C	0.173477	-0.125978	0.169343
	C1409	C	0.163623	-0.125622	0.167065
	C1410	C	0.158912	-0.035643	0.166719
	C1411	C	0.149778	-0.035504	0.166133
	C1412	C	0.145106	-0.125615	0.165886
	C1413	C	0.149804	-0.215536	0.166128
	C1414	C	0.158934	-0.215576	0.166697
	C1415	C	0.135261	-0.125562	0.163377
	C1416	C	0.200287	-0.125766	0.166899
	C1417	C	0.209724	-0.125542	0.160720
	C1418	C	0.214294	-0.215630	0.158378
	C1419	C	0.223162	-0.215403	0.154131
	C1420	C	0.227724	-0.125360	0.151960
	C1421	C	0.223124	-0.035431	0.154032
	C1422	C	0.214257	-0.035509	0.158314
	C1423	C	0.237159	-0.125182	0.145865
	H1424	H	0.226612	-0.285505	0.152401
	H1425	H	0.210882	-0.285759	0.159874
	H1426	H	0.228698	-0.215108	0.209029
	H1427	H	0.212523	-0.215475	0.207991
	H1428	H	0.186570	-0.376397	0.159479
	H1429	H	0.188732	-0.126049	0.215689
	H1430	H	0.123986	-0.125606	0.221847
	H1431	H	0.250781	-0.374562	0.153136
	H1432	H	0.162461	-0.285721	0.166935
	H1433	H	0.146261	-0.285697	0.165846
	H1434	H	0.148324	-0.216189	0.222556
	H1435	H	0.164072	-0.215676	0.215303
	H1436	H	0.146231	0.034757	0.165875
	H1437	H	0.162461	0.034215	0.166852
	H1438	H	0.164127	-0.535797	0.215204
	H1439	H	0.148402	-0.536041	0.222513
	H1440	H	0.212565	-0.535069	0.208651
	H1441	H	0.228770	-0.535135	0.209643
	H1442	H	0.210776	0.034642	0.159751
	H1443	H	0.226518	0.034915	0.152245
	Al1444	Al	0.187470	-0.000874	0.187628
	Al1445	Al	0.187504	0.249560	0.187459
	Al1446	Al	0.121269	0.249305	0.145126
	Al1447	Al	0.121291	-0.000560	0.145074
	O1448	O	0.197631	0.039965	0.204644
	O1449	O	0.186999	0.124329	0.173928
	O1450	O	0.187887	0.374239	0.201111
	O1451	O	0.243629	0.040486	0.212926
	O1452	O	0.178438	0.040671	0.205897
	O1453	O	0.134139	0.039984	0.231895
	O1454	O	0.178377	0.208638	0.205755
	O1455	O	0.177403	0.290570	0.170202
	O1456	O	0.131401	0.289875	0.162263
	O1457	O	0.197624	0.208302	0.204600
	O1458	O	0.196628	0.290532	0.169372
	O1459	O	0.240891	0.290666	0.143309
	O1460	O	0.134141	0.208427	0.231849
	O1461	O	0.177384	0.458646	0.170356
	O1462	O	0.131379	0.458277	0.162411
	O1463	O	0.240910	0.458881	0.143435
	O1464	O	0.196617	0.458609	0.169388
	O1465	O	0.243591	0.208776	0.212865
	O1466	O	0.124558	0.374081	0.236438
	O1467	O	0.250396	0.124572	0.138758
	C1468	C	0.225188	0.214612	0.209027
	C1469	C	0.229887	0.124524	0.209399
	C1470	C	0.225195	0.034495	0.209135
	C1471	C	0.216068	0.034401	0.208562
	C1472	C	0.211358	0.124347	0.208156
	C1473	C	0.216049	0.214471	0.208462
	C1474	C	0.201499	0.124189	0.205715
	C1475	C	0.239742	0.124566	0.211865
	C1476	C	0.174699	0.124602	0.208294
	C1477	C	0.165264	0.124405	0.214437
	C1478	C	0.160666	0.214199	0.216677
	C1479	C	0.151788	0.214107	0.220979
	C1480	C	0.147230	0.124053	0.223166
	C1481	C	0.151828	0.034269	0.220984
	C1482	C	0.160705	0.034409	0.216688
	C1483	C	0.137816	0.124202	0.229384
	C1484	C	0.173503	0.374654	0.169271
	C1485	C	0.163651	0.374482	0.166967
	C1486	C	0.158939	0.464525	0.166666
	C1487	C	0.149798	0.464321	0.166123
	C1488	C	0.145126	0.374275	0.165785
	C1489	C	0.149821	0.284396	0.166001
	C1490	C	0.158968	0.284387	0.166566
	C1491	C	0.135266	0.374108	0.163417
	C1492	C	0.200326	0.374527	0.166922
	C1493	C	0.209760	0.374328	0.160732
	C1494	C	0.214322	0.284614	0.158307
	C1495	C	0.223198	0.284685	0.154050
	C1496	C	0.227768	0.374617	0.152018
	C1497	C	0.223191	0.464327	0.154231
	C1498	C	0.214315	0.464293	0.158469
	C1499	C	0.237215	0.374962	0.145891
	H1500	H	0.226622	0.214570	0.152320
	H1501	H	0.210880	0.214510	0.159799
	H1502	H	0.228737	0.284367	0.209152
	H1503	H	0.212503	0.284526	0.208134
	H1504	H	0.186197	0.124465	0.159330
	H1505	H	0.188547	0.374050	0.215647
	H1506	H	0.123809	0.374351	0.221899
	H1507	H	0.251021	0.124634	0.153245
	H1508	H	0.162494	0.214464	0.166737
	H1509	H	0.146294	0.214370	0.165684
	H1510	H	0.148347	0.284335	0.222617
	H1511	H	0.164091	0.284389	0.214957
	H1512	H	0.146253	0.534245	0.165955
	H1513	H	0.162444	0.534636	0.166963
	H1514	H	0.164149	-0.035876	0.215023
	H1515	H	0.148410	-0.035932	0.222595
	H1516	H	0.212547	-0.035579	0.208286
	H1517	H	0.228757	-0.035504	0.209346
	H1518	H	0.210919	0.534394	0.160064
	H1519	H	0.226594	0.534446	0.152557
	Al1520	Al	0.191228	-0.501297	0.292311
	Al1521	Al	0.191242	-0.251185	0.292363
	Al1522	Al	0.125003	-0.250902	0.249942
	Al1523	Al	0.125006	-0.500870	0.250070
	O1524	O	0.201378	-0.460625	0.309481
	O1525	O	0.190804	-0.376544	0.278732
	O1526	O	0.191692	-0.126290	0.305943
	O1527	O	0.247387	-0.459542	0.317664
	O1528	O	0.182179	-0.460130	0.310739
	O1529	O	0.137853	-0.459758	0.336389
	O1530	O	0.182118	-0.291963	0.310492
	O1531	O	0.181109	-0.210444	0.275228
	O1532	O	0.135116	-0.210499	0.267091
	O1533	O	0.201353	-0.292354	0.309523
	O1534	O	0.200339	-0.210484	0.274072
	O1535	O	0.244622	-0.209309	0.248234
	O1536	O	0.137872	-0.291787	0.336603
	O1537	O	0.181088	-0.041788	0.275237
	O1538	O	0.135087	-0.042239	0.267312
	O1539	O	0.244588	-0.040937	0.248156
	O1540	O	0.200329	-0.042083	0.274066
	O1541	O	0.247350	-0.291186	0.317685
	O1542	O	0.128290	-0.126092	0.341202
	O1543	O	0.254168	-0.375698	0.243569
	C1544	C	0.228899	-0.285745	0.313997
	C1545	C	0.233641	-0.375672	0.314247
	C1546	C	0.228974	-0.465918	0.313904
	C1547	C	0.219841	-0.466309	0.313353
	C1548	C	0.215106	-0.376365	0.312987
	C1549	C	0.219759	-0.286043	0.313402
	C1550	C	0.205236	-0.376496	0.310574
	C1551	C	0.243496	-0.375347	0.316645
	C1552	C	0.178457	-0.376126	0.313139
	C1553	C	0.169044	-0.376133	0.319340
	C1554	C	0.164446	-0.286232	0.321530
	C1555	C	0.155565	-0.286139	0.325743
	C1556	C	0.151016	-0.375958	0.328066
	C1557	C	0.155596	-0.465962	0.325790
	C1558	C	0.164476	-0.465941	0.321561
	C1559	C	0.141562	-0.375881	0.334048
	C1560	C	0.177225	-0.126115	0.274197
	C1561	C	0.167370	-0.125874	0.271729
	C1562	C	0.162665	-0.035956	0.271508
	C1563	C	0.153521	-0.036142	0.270934
	C1564	C	0.148855	-0.126232	0.270506
	C1565	C	0.153547	-0.216178	0.270831
	C1566	C	0.162695	-0.215956	0.271405
	C1567	C	0.138984	-0.126266	0.268310
	C1568	C	0.204029	-0.126271	0.271672
	C1569	C	0.213457	-0.126243	0.265577
	C1570	C	0.218042	-0.216080	0.263266
	C1571	C	0.226918	-0.215734	0.258978
	C1572	C	0.231477	-0.125484	0.256834
	C1573	C	0.226888	-0.035655	0.259214
	C1574	C	0.218017	-0.035940	0.263480
	C1575	C	0.240915	-0.125310	0.250613
	H1576	H	0.230355	-0.285635	0.257220
	H1577	H	0.214628	-0.286443	0.264821
	H1578	H	0.232425	-0.215520	0.314192
	H1579	H	0.216191	-0.215965	0.313338
	H1580	H	0.190089	-0.376205	0.264191
	H1581	H	0.192323	-0.126154	0.320489
	H1582	H	0.127778	-0.126082	0.326642
	H1583	H	0.254764	-0.375516	0.258121
	H1584	H	0.166225	-0.285943	0.271445
	H1585	H	0.150048	-0.286250	0.270466
	H1586	H	0.152139	-0.216094	0.327297
	H1587	H	0.167868	-0.216256	0.319920
	H1588	H	0.149980	0.033824	0.270660
	H1589	H	0.166151	0.034279	0.271604
	H1590	H	0.167908	-0.536078	0.320054
	H1591	H	0.152162	-0.536142	0.327475
	H1592	H	0.216316	-0.536478	0.313180
	H1593	H	0.232501	-0.535629	0.314090
	H1594	H	0.214587	0.034210	0.265244
	H1595	H	0.230321	0.034718	0.257674
	Al1596	Al	0.191217	-0.001097	0.292270
	Al1597	Al	0.191236	0.248883	0.292423
	Al1598	Al	0.124990	0.249111	0.250053
	Al1599	Al	0.124983	-0.000819	0.250057
	O1600	O	0.201367	0.039174	0.309394
	O1601	O	0.190781	0.124019	0.278751
	O1602	O	0.191683	0.373681	0.306008
	O1603	O	0.247346	0.040661	0.317616
	O1604	O	0.182108	0.040112	0.310536
	O1605	O	0.137822	0.039837	0.336502
	O1606	O	0.182094	0.208346	0.310586
	O1607	O	0.181131	0.290224	0.275065
	O1608	O	0.135124	0.289795	0.267221
	O1609	O	0.201297	0.207405	0.309763
	O1610	O	0.200407	0.288970	0.274370
	O1611	O	0.244639	0.290552	0.248143
	O1612	O	0.137866	0.208125	0.336627
	O1613	O	0.181095	0.458399	0.275218
	O1614	O	0.135121	0.457951	0.267315
	O1615	O	0.244549	0.458738	0.247896
	O1616	O	0.200336	0.457065	0.274157
	O1617	O	0.247301	0.208784	0.317687
	O1618	O	0.128351	0.374113	0.341062
	O1619	O	0.254189	0.124513	0.243541
	C1620	C	0.228870	0.214249	0.313922
	C1621	C	0.233590	0.124368	0.314167
	C1622	C	0.228937	0.034213	0.313840
	C1623	C	0.219795	0.033983	0.313391
	C1624	C	0.215070	0.123849	0.313108
	C1625	C	0.219733	0.213944	0.313456
	C1626	C	0.205219	0.123440	0.310682
	C1627	C	0.243457	0.124726	0.316561
	C1628	C	0.178380	0.124252	0.313045
	C1629	C	0.168959	0.124016	0.319104
	C1630	C	0.164361	0.213768	0.321289
	C1631	C	0.155486	0.213576	0.325577
	C1632	C	0.150945	0.123659	0.327916
	C1633	C	0.155530	0.033756	0.325692
	C1634	C	0.164400	0.034099	0.321373
	C1635	C	0.141531	0.123898	0.334091
	C1636	C	0.177230	0.374193	0.274143
	C1637	C	0.167378	0.374085	0.271659
	C1638	C	0.162675	0.463981	0.271484
	C1639	C	0.153547	0.463754	0.271016
	C1640	C	0.148862	0.373652	0.270677
	C1641	C	0.153570	0.283771	0.270881
	C1642	C	0.162693	0.283957	0.271352
	C1643	C	0.138997	0.373842	0.268305
	C1644	C	0.204066	0.373022	0.271687
	C1645	C	0.213487	0.373552	0.265629
	C1646	C	0.218094	0.283842	0.263351
	C1647	C	0.226980	0.284262	0.259069
	C1648	C	0.231480	0.374360	0.256681
	C1649	C	0.226890	0.464183	0.259004
	C1650	C	0.217999	0.463695	0.263302
	C1651	C	0.240907	0.374657	0.250545
	H1652	H	0.230442	0.214371	0.257529
	H1653	H	0.214713	0.213453	0.265018
	H1654	H	0.232369	0.284368	0.314110
	H1655	H	0.216191	0.284089	0.313368
	H1656	H	0.190185	0.124184	0.264259
	H1657	H	0.192336	0.374075	0.320591
	H1658	H	0.127726	0.374694	0.326450
	H1659	H	0.254809	0.124973	0.258049
	H1660	H	0.166238	0.213948	0.271339
	H1661	H	0.150051	0.213750	0.270575
	H1662	H	0.152023	0.283788	0.327119
	H1663	H	0.167746	0.284234	0.319557
	H1664	H	0.149989	0.533750	0.270742
	H1665	H	0.166228	0.534090	0.271583
	H1666	H	0.167840	-0.036036	0.319762
	H1667	H	0.152135	-0.036455	0.327403
	H1668	H	0.216295	-0.036220	0.313221
	H1669	H	0.232503	-0.035811	0.314018
	H1670	H	0.214540	0.533686	0.264935
	H1671	H	0.230280	0.534519	0.257466
	Al1672	Al	0.194943	-0.500778	0.397341
	Al1673	Al	0.194933	-0.250861	0.397243
	Al1674	Al	0.128717	-0.250901	0.354818
	Al1675	Al	0.128707	-0.501237	0.354647
	O1676	O	0.205051	-0.460114	0.414564
	O1677	O	0.194608	-0.375813	0.383650
	O1678	O	0.195302	-0.126021	0.410832
	O1679	O	0.251028	-0.458732	0.423276
	O1680	O	0.185810	-0.459702	0.415353
	O1681	O	0.141548	-0.459613	0.441442
	O1682	O	0.185780	-0.291812	0.415287
	O1683	O	0.184859	-0.209801	0.379960
	O1684	O	0.138817	-0.210160	0.372018
	O1685	O	0.204998	-0.291632	0.414638
	O1686	O	0.204087	-0.210202	0.379112
	O1687	O	0.248413	-0.209172	0.353284
	O1688	O	0.141590	-0.291539	0.441617
	O1689	O	0.184834	-0.041504	0.380131
	O1690	O	0.138831	-0.041890	0.372003
	O1691	O	0.248281	-0.040690	0.353016
	O1692	O	0.204032	-0.041817	0.378880
	O1693	O	0.250966	-0.290263	0.423595
	O1694	O	0.132024	-0.125493	0.445995
	O1695	O	0.257832	-0.375360	0.348592
	C1696	C	0.232544	-0.285125	0.419666
	C1697	C	0.237265	-0.374853	0.419812
	C1698	C	0.232603	-0.464948	0.419316
	C1699	C	0.223480	-0.465127	0.418572
	C1700	C	0.218751	-0.375501	0.418302
	C1701	C	0.223413	-0.285365	0.418944
	C1702	C	0.208907	-0.375867	0.415707
	C1703	C	0.247119	-0.374587	0.422299
	C1704	C	0.182094	-0.375932	0.417792
	C1705	C	0.172672	-0.375654	0.423967
	C1706	C	0.168104	-0.285902	0.426233
	C1707	C	0.159247	-0.285869	0.430567
	C1708	C	0.154671	-0.375635	0.432845
	C1709	C	0.159242	-0.465635	0.430786
	C1710	C	0.168113	-0.465529	0.426470
	C1711	C	0.145249	-0.375760	0.439076
	C1712	C	0.180978	-0.125545	0.378973
	C1713	C	0.171103	-0.125754	0.376552
	C1714	C	0.166396	-0.035788	0.376305
	C1715	C	0.157258	-0.035926	0.375787
	C1716	C	0.152580	-0.126037	0.375433
	C1717	C	0.157284	-0.215917	0.375623
	C1718	C	0.166419	-0.215727	0.376156
	C1719	C	0.142710	-0.125980	0.373053
	C1720	C	0.207764	-0.125790	0.376616
	C1721	C	0.217212	-0.125819	0.370501
	C1722	C	0.221850	-0.215473	0.368714
	C1723	C	0.230721	-0.215420	0.364460
	C1724	C	0.235226	-0.125568	0.361881
	C1725	C	0.230612	-0.035790	0.363820
	C1726	C	0.221746	-0.035925	0.368082
	C1727	C	0.244649	-0.125297	0.355675
	H1728	H	0.234189	-0.285279	0.362977
	H1729	H	0.218475	-0.285753	0.370550
	H1730	H	0.236071	-0.215225	0.420043
	H1731	H	0.219876	-0.215519	0.418749
	H1732	H	0.194111	-0.376260	0.369092
	H1733	H	0.195843	-0.125971	0.425395
	H1734	H	0.131442	-0.125694	0.431464
	H1735	H	0.258316	-0.375423	0.363164
	H1736	H	0.169963	-0.285522	0.376297
	H1737	H	0.153785	-0.286078	0.375410
	H1738	H	0.155833	-0.215796	0.432209
	H1739	H	0.171499	-0.215939	0.424547
	H1740	H	0.153701	0.033999	0.375626
	H1741	H	0.169897	0.034316	0.376531
	H1742	H	0.171562	-0.535571	0.424876
	H1743	H	0.155822	-0.535572	0.432590
	H1744	H	0.219955	-0.535433	0.418106
	H1745	H	0.236143	-0.534811	0.419440
	H1746	H	0.218249	0.034028	0.369450
	H1747	H	0.233951	0.034385	0.361868
	Al1748	Al	0.194966	-0.001017	0.397256
	Al1749	Al	0.194934	0.248962	0.397317
	Al1750	Al	0.128748	0.249207	0.354646
	Al1751	Al	0.128709	-0.001068	0.354802
	O1752	O	0.205060	0.039657	0.414409
	O1753	O	0.194560	0.124099	0.383675
	O1754	O	0.195339	0.374004	0.410884
	O1755	O	0.250987	0.041274	0.423513
	O1756	O	0.185817	0.040003	0.415360
	O1757	O	0.141588	0.040331	0.441639
	O1758	O	0.185810	0.208258	0.415436
	O1759	O	0.184825	0.290151	0.380118
	O1760	O	0.138819	0.290175	0.371895
	O1761	O	0.205010	0.207784	0.414582
	O1762	O	0.204058	0.290003	0.379081
	O1763	O	0.248317	0.290609	0.353203
	O1764	O	0.141575	0.208541	0.441558
	O1765	O	0.184795	0.458498	0.380314
	O1766	O	0.138820	0.458385	0.371789
	O1767	O	0.248261	0.458891	0.353068
	O1768	O	0.204008	0.458103	0.379055
	O1769	O	0.251005	0.209767	0.423514
	O1770	O	0.132036	0.374549	0.445989
	O1771	O	0.257767	0.124124	0.348507
	C1772	C	0.232543	0.215149	0.419698
	C1773	C	0.237283	0.125674	0.419924
	C1774	C	0.232641	0.035358	0.419371
	C1775	C	0.223494	0.034678	0.418640
	C1776	C	0.218763	0.124238	0.418339
	C1777	C	0.223400	0.214518	0.418993
	C1778	C	0.208922	0.123845	0.415715
	C1779	C	0.247123	0.125541	0.422402
	C1780	C	0.182122	0.124141	0.417925
	C1781	C	0.172719	0.124355	0.424168
	C1782	C	0.168153	0.214344	0.426385
	C1783	C	0.159263	0.214106	0.430759
	C1784	C	0.154711	0.124160	0.433082
	C1785	C	0.159290	0.034424	0.430917
	C1786	C	0.168163	0.034566	0.426519
	C1787	C	0.145290	0.124437	0.439173
	C1788	C	0.180943	0.374280	0.379027
	C1789	C	0.171101	0.374185	0.376584
	C1790	C	0.166403	0.464062	0.376369
	C1791	C	0.157266	0.464065	0.375802
	C1792	C	0.152571	0.374010	0.375357
	C1793	C	0.157274	0.284082	0.375574
	C1794	C	0.166422	0.284019	0.376127
	C1795	C	0.142712	0.374271	0.372927
	C1796	C	0.207739	0.374007	0.376626
	C1797	C	0.217193	0.374161	0.370557
	C1798	C	0.221794	0.284288	0.368559
	C1799	C	0.230665	0.284491	0.364229
	C1800	C	0.235176	0.374594	0.361772
	C1801	C	0.230590	0.464406	0.363863
	C1802	C	0.221716	0.464257	0.368170
	C1803	C	0.244604	0.374686	0.355633
	H1804	H	0.234115	0.214433	0.362692
	H1805	H	0.218375	0.214032	0.370294
	H1806	H	0.236015	0.285511	0.419962
	H1807	H	0.219842	0.284147	0.418714
	H1808	H	0.193859	0.124235	0.369187
	H1809	H	0.195837	0.374126	0.425442
	H1810	H	0.131361	0.374447	0.431556
	H1811	H	0.258113	0.123881	0.363074
	H1812	H	0.169937	0.213672	0.376339
	H1813	H	0.153749	0.214240	0.375360
	H1814	H	0.155831	0.284354	0.432332
	H1815	H	0.171530	0.284444	0.424618
	H1816	H	0.153762	0.534278	0.375778
	H1817	H	0.169939	0.534190	0.376753
	H1818	H	0.171592	-0.035644	0.424890
	H1819	H	0.155917	-0.035949	0.432596
	H1820	H	0.219995	-0.035591	0.418155
	H1821	H	0.236210	-0.034378	0.419350
	H1822	H	0.218304	0.534414	0.369528
	H1823	H	0.233978	0.534631	0.362021
	Al1824	Al	0.198170	-0.499231	0.504885
	Al1825	Al	0.198136	-0.250484	0.504805
	Al1826	Al	0.132401	-0.250527	0.459690
	Al1827	Al	0.132445	-0.500517	0.459712
	O1828	O	0.206960	-0.459142	0.525802
	O1829	O	0.198088	-0.374972	0.491451
	O1830	O	0.197961	-0.124995	0.518225
	O1831	O	0.241966	-0.459403	0.601912
	O1832	O	0.188689	-0.458959	0.521971
	O1833	O	0.145169	-0.459224	0.551297
	O1834	O	0.188633	-0.290526	0.521849
	O1835	O	0.188510	-0.209218	0.485893
	O1836	O	0.142474	-0.209907	0.476873
	O1837	O	0.206892	-0.291299	0.525827
	O1838	O	0.207709	-0.209587	0.488607
	O1839	O	0.251264	-0.209022	0.459491
	O1840	O	0.145163	-0.291002	0.551242
	O1841	O	0.188437	-0.040563	0.486010
	O1842	O	0.142470	-0.041612	0.477027
	O1843	O	0.251128	-0.040403	0.459250
	O1844	O	0.207641	-0.041017	0.488294
	O1845	O	0.241918	-0.291241	0.601991
	O1846	O	0.135696	-0.124869	0.554524
	O1847	O	0.260435	-0.375250	0.455691
	C1848	C	0.228026	-0.286232	0.571142
	C1849	C	0.231590	-0.375300	0.578938
	C1850	C	0.228064	-0.464195	0.571079
	C1851	C	0.221108	-0.464110	0.555909
	C1852	C	0.217478	-0.375051	0.548283
	C1853	C	0.221066	-0.286186	0.555968
	C1854	C	0.209923	-0.375161	0.532034
	C1855	C	0.239021	-0.375293	0.595547
	C1856	C	0.185046	-0.374713	0.524718
	C1857	C	0.175783	-0.375084	0.531617
	C1858	C	0.171303	-0.285433	0.534408
	C1859	C	0.162567	-0.285532	0.539670
	C1860	C	0.158133	-0.375374	0.542342
	C1861	C	0.162631	-0.465088	0.539783
	C1862	C	0.171363	-0.464998	0.534463
	C1863	C	0.148828	-0.375285	0.548844
	C1864	C	0.184597	-0.124956	0.484908
	C1865	C	0.174729	-0.125220	0.482491
	C1866	C	0.170011	-0.035373	0.482166
	C1867	C	0.160874	-0.035717	0.481445
	C1868	C	0.156208	-0.125791	0.480876
	C1869	C	0.160930	-0.215588	0.481295
	C1870	C	0.170073	-0.215261	0.482060
	C1871	C	0.146348	-0.125797	0.478216
	C1872	C	0.211341	-0.125021	0.486021
	C1873	C	0.220666	-0.125046	0.479672
	C1874	C	0.225161	-0.214809	0.477233
	C1875	C	0.233900	-0.215019	0.471950
	C1876	C	0.238339	-0.125218	0.469057
	C1877	C	0.233846	-0.035246	0.471573
	C1878	C	0.225106	-0.035130	0.476813
	C1879	C	0.247582	-0.124548	0.462086
	H1880	H	0.237285	-0.284852	0.469852
	H1881	H	0.221780	-0.284309	0.479379
	H1882	H	0.230740	-0.217323	0.576932
	H1883	H	0.218403	-0.216918	0.550036
	H1884	H	0.197674	-0.375108	0.476953
	H1885	H	0.197649	-0.124726	0.532769
	H1886	H	0.135275	-0.124585	0.539970
	H1887	H	0.259970	-0.375233	0.470154
	H1888	H	0.173630	-0.285202	0.482173
	H1889	H	0.157405	-0.285889	0.480855
	H1890	H	0.159209	-0.216020	0.541840
	H1891	H	0.174688	-0.215530	0.532314
	H1892	H	0.157345	0.033943	0.481121
	H1893	H	0.173507	0.034839	0.482370
	H1894	H	0.174768	-0.534387	0.532430
	H1895	H	0.159252	-0.534399	0.541967
	H1896	H	0.218462	-0.533304	0.549906
	H1897	H	0.230791	-0.533505	0.576869
	H1898	H	0.221694	0.034707	0.478653
	H1899	H	0.237179	0.034495	0.469213
	Al1900	Al	0.198152	0.000760	0.504767
	Al1901	Al	0.198203	0.249765	0.504826
	Al1902	Al	0.132428	0.249326	0.459567
	Al1903	Al	0.132430	-0.000697	0.459669
	O1904	O	0.206955	0.040611	0.525786
	O1905	O	0.198086	0.125215	0.491392
	O1906	O	0.197875	0.374872	0.518353
	O1907	O	0.241887	0.040335	0.602079
	O1908	O	0.188686	0.040863	0.521923
	O1909	O	0.145170	0.040789	0.551285
	O1910	O	0.188660	0.209319	0.521661
	O1911	O	0.188508	0.291220	0.486013
	O1912	O	0.142522	0.290294	0.476860
	O1913	O	0.206965	0.208736	0.525795
	O1914	O	0.207727	0.290854	0.488466
	O1915	O	0.251257	0.291540	0.459439
	O1916	O	0.145156	0.209022	0.551296
	O1917	O	0.188454	0.459629	0.486236
	O1918	O	0.142502	0.458663	0.477042
	O1919	O	0.251152	0.459656	0.459085
	O1920	O	0.207609	0.459081	0.488394
	O1921	O	0.241872	0.208270	0.602137
	O1922	O	0.135659	0.375085	0.554499
	O1923	O	0.260523	0.125341	0.455765
	C1924	C	0.228048	0.213222	0.571071
	C1925	C	0.231616	0.124403	0.578876
	C1926	C	0.228093	0.035398	0.571031
	C1927	C	0.221151	0.035429	0.555836
	C1928	C	0.217535	0.124426	0.548182
	C1929	C	0.221090	0.213463	0.555921
	C1930	C	0.209959	0.124645	0.532038
	C1931	C	0.238980	0.124416	0.595601
	C1932	C	0.185071	0.125067	0.524596
	C1933	C	0.175815	0.125124	0.531585
	C1934	C	0.171353	0.215111	0.534348
	C1935	C	0.162626	0.215055	0.539733
	C1936	C	0.158159	0.125140	0.542404
	C1937	C	0.162635	0.035317	0.539710
	C1938	C	0.171367	0.035283	0.534361
	C1939	C	0.148818	0.125118	0.548760
	C1940	C	0.184591	0.375160	0.485064
	C1941	C	0.174748	0.374828	0.482563
	C1942	C	0.170041	0.464548	0.482152
	C1943	C	0.160904	0.464496	0.481318
	C1944	C	0.156229	0.374513	0.480837
	C1945	C	0.160940	0.284631	0.481278
	C1946	C	0.170080	0.284867	0.482124
	C1947	C	0.146385	0.374380	0.478130
	C1948	C	0.211332	0.375141	0.485977
	C1949	C	0.220645	0.375581	0.479561
	C1950	C	0.225164	0.285700	0.477238
	C1951	C	0.233889	0.285767	0.471997
	C1952	C	0.238324	0.375439	0.469015
	C1953	C	0.233828	0.465185	0.471517
	C1954	C	0.225099	0.465181	0.476735
	C1955	C	0.247588	0.375501	0.462050
	H1956	H	0.237302	0.216160	0.470051
	H1957	H	0.221818	0.215983	0.479487
	H1958	H	0.230680	0.282084	0.577081
	H1959	H	0.218375	0.282469	0.550100
	H1960	H	0.197594	0.125238	0.476856
	H1961	H	0.197332	0.375062	0.532731
	H1962	H	0.135370	0.375342	0.540057
	H1963	H	0.260130	0.125642	0.470280
	H1964	H	0.173644	0.214771	0.482426
	H1965	H	0.157436	0.214308	0.480930
	H1966	H	0.159213	0.284359	0.541806
	H1967	H	0.174709	0.284975	0.532173
	H1968	H	0.157355	0.534216	0.481027
	H1969	H	0.173561	0.534266	0.482510
	H1970	H	0.174775	-0.034489	0.532162
	H1971	H	0.159251	-0.034480	0.541720
	H1972	H	0.218462	-0.033609	0.549915
	H1973	H	0.230765	-0.033508	0.577008
	H1974	H	0.221678	0.534484	0.478597
	H1975	H	0.237201	0.534966	0.469297
	Al1976	Al	0.187568	-0.500441	0.688011
	Al1977	Al	0.187560	-0.250739	0.688027
	Al1978	Al	0.135716	-0.249572	0.567896
	Al1979	Al	0.135713	-0.500453	0.567912
	O1980	O	0.195588	-0.459655	0.710795
	O1981	O	0.188252	-0.375288	0.674847
	O1982	O	0.186737	-0.125771	0.701044
	O1983	O	0.230583	-0.459786	0.786980
	O1984	O	0.177647	-0.460490	0.702903
	O1985	O	0.134972	-0.460374	0.735185
	O1986	O	0.177692	-0.291636	0.702936
	O1987	O	0.179490	-0.209794	0.665072
	O1988	O	0.144540	-0.209150	0.588844
	O1989	O	0.195577	-0.291420	0.710804
	O1990	O	0.197502	-0.209977	0.673339
	O1991	O	0.240043	-0.209582	0.639625
	O1992	O	0.134965	-0.291761	0.735112
	O1993	O	0.179486	-0.041496	0.665162
	O1994	O	0.144552	-0.041115	0.588910
	O1995	O	0.239979	-0.041020	0.639603
	O1996	O	0.197465	-0.041361	0.673193
	O1997	O	0.230589	-0.291948	0.786943
	O1998	O	0.125807	-0.125661	0.736706
	O1999	O	0.249250	-0.375320	0.637942
	C2000	C	0.216456	-0.286995	0.756739
	C2001	C	0.219996	-0.376013	0.764580
	C2002	C	0.216364	-0.464959	0.756987
	C2003	C	0.209406	-0.465032	0.741819
	C2004	C	0.205873	-0.375892	0.733958
	C2005	C	0.209508	-0.286981	0.741572
	C2006	C	0.198489	-0.375785	0.717255
	C2007	C	0.227564	-0.375705	0.780795
	C2008	C	0.174097	-0.375835	0.705565
	C2009	C	0.164944	-0.375721	0.712710
	C2010	C	0.160573	-0.286224	0.715662
	C2011	C	0.151995	-0.286451	0.721935
	C2012	C	0.147689	-0.376100	0.725183
	C2013	C	0.152072	-0.465661	0.722213
	C2014	C	0.160642	-0.465452	0.715940
	C2015	C	0.138536	-0.376004	0.732434
	C2016	C	0.176554	-0.125570	0.658718
	C2017	C	0.169202	-0.125514	0.642020
	C2018	C	0.165582	-0.036739	0.634307
	C2019	C	0.158653	-0.036760	0.619094
	C2020	C	0.155117	-0.125534	0.611254
	C2021	C	0.158801	-0.214355	0.618775
	C2022	C	0.165740	-0.214348	0.633985
	C2023	C	0.147550	-0.125185	0.595116
	C2024	C	0.201045	-0.125749	0.670523
	C2025	C	0.210166	-0.125753	0.663129
	C2026	C	0.214526	-0.215224	0.660018
	C2027	C	0.223050	-0.215116	0.653373
	C2028	C	0.227343	-0.125775	0.649908
	C2029	C	0.222985	-0.036374	0.652975
	C2030	C	0.214456	-0.036347	0.659664
	C2031	C	0.236446	-0.125402	0.642398
	H2032	H	0.226401	-0.284166	0.650906
	H2033	H	0.211204	-0.283753	0.662786
	H2034	H	0.219204	-0.217901	0.762531
	H2035	H	0.206873	-0.217816	0.735571
	H2036	H	0.188999	-0.375374	0.660469
	H2037	H	0.185892	-0.125668	0.715346
	H2038	H	0.126706	-0.125239	0.722394
	H2039	H	0.248601	-0.374994	0.652308
	H2040	H	0.168478	-0.283189	0.639815
	H2041	H	0.156163	-0.282941	0.612751
	H2042	H	0.148609	-0.217526	0.724347
	H2043	H	0.163900	-0.217321	0.713096
	H2044	H	0.155908	0.032002	0.613314
	H2045	H	0.168201	0.031987	0.640441
	H2046	H	0.164016	-0.534353	0.713521
	H2047	H	0.148733	-0.534781	0.724804
	H2048	H	0.206702	-0.534273	0.735967
	H2049	H	0.219026	-0.533978	0.762996
	H2050	H	0.211098	0.032496	0.662191
	H2051	H	0.226277	0.032385	0.650127
	Al2052	Al	0.187576	-0.000729	0.687945
	Al2053	Al	0.187567	0.249226	0.687917
	Al2054	Al	0.135733	0.250473	0.567932
	Al2055	Al	0.135743	-0.000417	0.567916
	O2056	O	0.195625	0.039452	0.710800
	O2057	O	0.188210	0.124295	0.674760
	O2058	O	0.186898	0.374360	0.701061
	O2059	O	0.230534	0.039538	0.787010
	O2060	O	0.177660	0.040351	0.703007
	O2061	O	0.134891	0.040242	0.734947
	O2062	O	0.177644	0.208771	0.702645
	O2063	O	0.179518	0.290654	0.665020
	O2064	O	0.144578	0.291094	0.588778
	O2065	O	0.195585	0.207616	0.710683
	O2066	O	0.197492	0.289896	0.673076
	O2067	O	0.240099	0.290263	0.639869
	O2068	O	0.134926	0.208445	0.735060
	O2069	O	0.179492	0.458554	0.665167
	O2070	O	0.144530	0.458831	0.588861
	O2071	O	0.240012	0.458940	0.639601
	O2072	O	0.197451	0.458566	0.673092
	O2073	O	0.230537	0.207621	0.787081
	O2074	O	0.125781	0.374387	0.736865
	O2075	O	0.249197	0.124376	0.638042
	C2076	C	0.216406	0.212831	0.756808
	C2077	C	0.220005	0.123945	0.764518
	C2078	C	0.216440	0.035023	0.756756
	C2079	C	0.209495	0.035086	0.741606
	C2080	C	0.205915	0.123893	0.733859
	C2081	C	0.209460	0.212917	0.741656
	C2082	C	0.198517	0.123767	0.717162
	C2083	C	0.227546	0.123554	0.780828
	C2084	C	0.174073	0.124693	0.705543
	C2085	C	0.164917	0.124812	0.712735
	C2086	C	0.160532	0.214078	0.715768
	C2087	C	0.151967	0.213784	0.722095
	C2088	C	0.147650	0.124378	0.725246
	C2089	C	0.152023	0.035261	0.722120
	C2090	C	0.160589	0.035488	0.715802
	C2091	C	0.138500	0.124391	0.732388
	C2092	C	0.176601	0.374638	0.658654
	C2093	C	0.169188	0.375050	0.642020
	C2094	C	0.165578	0.463848	0.634280
	C2095	C	0.158648	0.463935	0.619083
	C2096	C	0.155100	0.375115	0.611285
	C2097	C	0.158764	0.286220	0.618858
	C2098	C	0.165700	0.286102	0.634054
	C2099	C	0.147572	0.375004	0.595039
	C2100	C	0.201042	0.374337	0.670345
	C2101	C	0.210166	0.374352	0.662939
	C2102	C	0.214523	0.285045	0.659791
	C2103	C	0.223081	0.285293	0.653233
	C2104	C	0.227374	0.374588	0.649835
	C2105	C	0.223015	0.463881	0.652997
	C2106	C	0.214473	0.463704	0.659569
	C2107	C	0.236486	0.374598	0.642470
	H2108	H	0.226425	0.216595	0.650574
	H2109	H	0.211234	0.216279	0.662572
	H2110	H	0.219086	0.281730	0.762822
	H2111	H	0.206773	0.281869	0.735707
	H2112	H	0.188933	0.124287	0.660422
	H2113	H	0.186133	0.373901	0.715458
	H2114	H	0.126622	0.374644	0.722547
	H2115	H	0.248237	0.124358	0.652315
	H2116	H	0.168441	0.217413	0.639815
	H2117	H	0.156174	0.217485	0.612743
	H2118	H	0.148598	0.282638	0.724604
	H2119	H	0.163865	0.282833	0.713265
	H2120	H	0.155953	0.533034	0.613148
	H2121	H	0.168230	0.532513	0.640318
	H2122	H	0.163931	-0.033383	0.713304
	H2123	H	0.148666	-0.033802	0.724596
	H2124	H	0.206852	-0.034015	0.735587
	H2125	H	0.219110	-0.033758	0.762673
	H2126	H	0.211129	0.532378	0.662232
	H2127	H	0.226308	0.533002	0.650301
	Al2128	Al	0.176767	-0.501741	0.869955
	Al2129	Al	0.176780	-0.250783	0.869963
	Al2130	Al	0.125027	-0.250490	0.749808
	Al2131	Al	0.125024	-0.500648	0.749959
	O2132	O	0.186475	-0.461007	0.888713
	O2133	O	0.176986	-0.376259	0.856434
	O2134	O	0.176828	-0.126147	0.883421
	O2135	O	0.232406	-0.460161	0.897878
	O2136	O	0.167342	-0.460096	0.886547
	O2137	O	0.123785	-0.461015	0.915618
	O2138	O	0.167289	-0.291611	0.886562
	O2139	O	0.167960	-0.209650	0.849008
	O2140	O	0.133099	-0.209384	0.772577
	O2141	O	0.186439	-0.292396	0.888778
	O2142	O	0.186286	-0.210555	0.853074
	O2143	O	0.229870	-0.210504	0.824450
	O2144	O	0.123717	-0.292714	0.915370
	O2145	O	0.167932	-0.041725	0.849197
	O2146	O	0.133040	-0.041447	0.772708
	O2147	O	0.229866	-0.041879	0.824599
	O2148	O	0.186225	-0.042253	0.852841
	O2149	O	0.232404	-0.291982	0.897883
	O2150	O	0.114521	-0.126755	0.919013
	O2151	O	0.239486	-0.375940	0.821409
	C2152	C	0.213981	-0.286284	0.893566
	C2153	C	0.218679	-0.376240	0.894180
	C2154	C	0.214002	-0.466195	0.893473
	C2155	C	0.204873	-0.466173	0.892705
	C2156	C	0.200169	-0.376341	0.892430
	C2157	C	0.204841	-0.286434	0.892768
	C2158	C	0.190332	-0.376680	0.889906
	C2159	C	0.228550	-0.376110	0.896732
	C2160	C	0.163652	-0.376116	0.889002
	C2161	C	0.154349	-0.376002	0.895485
	C2162	C	0.149836	-0.286279	0.897768
	C2163	C	0.141085	-0.286449	0.902969
	C2164	C	0.136657	-0.376473	0.905951
	C2165	C	0.141154	-0.466101	0.903492
	C2166	C	0.149905	-0.465982	0.898281
	C2167	C	0.127384	-0.376642	0.912794
	C2168	C	0.164939	-0.125613	0.842919
	C2169	C	0.157382	-0.125655	0.826662
	C2170	C	0.153759	-0.036749	0.819045
	C2171	C	0.146851	-0.036584	0.803802
	C2172	C	0.143362	-0.125597	0.795830
	C2173	C	0.146945	-0.214660	0.803568
	C2174	C	0.153862	-0.214779	0.818832
	C2175	C	0.135974	-0.125507	0.779104
	C2176	C	0.189895	-0.126422	0.850258
	C2177	C	0.199170	-0.126328	0.843481
	C2178	C	0.203661	-0.216073	0.840732
	C2179	C	0.212404	-0.216251	0.835558
	C2180	C	0.216858	-0.126322	0.833053
	C2181	C	0.212376	-0.036586	0.835710
	C2182	C	0.203620	-0.036498	0.840840
	C2183	C	0.226207	-0.126356	0.826936
	H2184	H	0.215816	-0.285893	0.833527
	H2185	H	0.200296	-0.286112	0.842755
	H2186	H	0.217505	-0.216399	0.893954
	H2187	H	0.201284	-0.216424	0.892650
	H2188	H	0.177476	-0.376463	0.841941
	H2189	H	0.177218	-0.126126	0.897973
	H2190	H	0.114971	-0.126933	0.904507
	H2191	H	0.239861	-0.375511	0.835953
	H2192	H	0.156551	-0.283747	0.824707
	H2193	H	0.144280	-0.283384	0.797531
	H2194	H	0.137668	-0.216883	0.904823
	H2195	H	0.153206	-0.216736	0.895453
	H2196	H	0.144166	0.032542	0.797985
	H2197	H	0.156404	0.032151	0.825199
	H2198	H	0.153309	-0.535548	0.896438
	H2199	H	0.137802	-0.535924	0.905706
	H2200	H	0.201370	-0.536158	0.892479
	H2201	H	0.217532	-0.536134	0.893840
	H2202	H	0.200238	0.033034	0.843005
	H2203	H	0.215776	0.032931	0.833752
	Al2204	Al	0.176809	-0.001549	0.870002
	Al2205	Al	0.176786	0.249111	0.869981
	Al2206	Al	0.125019	0.249130	0.749882
	Al2207	Al	0.125003	-0.000819	0.749860
	O2208	O	0.186548	0.038736	0.888723
	O2209	O	0.177034	0.123573	0.856491
	O2210	O	0.176833	0.373707	0.883375
	O2211	O	0.232496	0.040030	0.897886
	O2212	O	0.167374	0.039583	0.886724
	O2213	O	0.123788	0.039110	0.915519
	O2214	O	0.167337	0.207876	0.886600
	O2215	O	0.167973	0.289636	0.849025
	O2216	O	0.133024	0.290074	0.772755
	O2217	O	0.186512	0.207249	0.888740
	O2218	O	0.186261	0.289249	0.852838
	O2219	O	0.229901	0.289911	0.824582
	O2220	O	0.123767	0.207476	0.915521
	O2221	O	0.167943	0.457552	0.849137
	O2222	O	0.133021	0.458295	0.772738
	O2223	O	0.229860	0.458450	0.824378
	O2224	O	0.186223	0.457626	0.852748
	O2225	O	0.232446	0.208237	0.898009
	O2226	O	0.114482	0.373279	0.919178
	O2227	O	0.239332	0.123813	0.821505
	C2228	C	0.214039	0.213497	0.893598
	C2229	C	0.218765	0.123875	0.894013
	C2230	C	0.214092	0.033693	0.893400
	C2231	C	0.204957	0.033267	0.892630
	C2232	C	0.200246	0.123052	0.892341
	C2233	C	0.204916	0.213131	0.892783
	C2234	C	0.190399	0.123138	0.889834
	C2235	C	0.228603	0.124083	0.896757
	C2236	C	0.163696	0.123758	0.889074
	C2237	C	0.154372	0.123451	0.895369
	C2238	C	0.149874	0.213186	0.897817
	C2239	C	0.141143	0.213176	0.903060
	C2240	C	0.136688	0.123255	0.905900
	C2241	C	0.141185	0.033510	0.903283
	C2242	C	0.149919	0.033579	0.898057
	C2243	C	0.127410	0.123522	0.912823
	C2244	C	0.164947	0.373714	0.842868
	C2245	C	0.157377	0.373930	0.826680
	C2246	C	0.153785	0.462872	0.818960
	C2247	C	0.146852	0.462736	0.803800
	C2248	C	0.143304	0.374061	0.795921
	C2249	C	0.146905	0.285158	0.803620
	C2250	C	0.153834	0.285216	0.818804
	C2251	C	0.135940	0.374069	0.779223
	C2252	C	0.189863	0.373772	0.850129
	C2253	C	0.199169	0.373456	0.843400
	C2254	C	0.203690	0.283781	0.840760
	C2255	C	0.212438	0.284198	0.835640
	C2256	C	0.216879	0.374128	0.833081
	C2257	C	0.212343	0.463690	0.835451
	C2258	C	0.203587	0.463392	0.840605
	C2259	C	0.226212	0.374245	0.826817
	H2260	H	0.215885	0.214766	0.833656
	H2261	H	0.200330	0.214008	0.842802
	H2262	H	0.217553	0.283540	0.894017
	H2263	H	0.201378	0.283253	0.892525
	H2264	H	0.177481	0.123477	0.841865
	H2265	H	0.177234	0.374043	0.897905
	H2266	H	0.114784	0.373139	0.904678
	H2267	H	0.239699	0.124216	0.836113
	H2268	H	0.156577	0.216385	0.824653
	H2269	H	0.144263	0.215978	0.797587
	H2270	H	0.137754	0.282752	0.905138
	H2271	H	0.153253	0.282898	0.895624
	H2272	H	0.144149	0.531614	0.797840
	H2273	H	0.156437	0.531747	0.824936
	H2274	H	0.153340	-0.035679	0.896083
	H2275	H	0.137831	-0.036344	0.905503
	H2276	H	0.201428	-0.036645	0.892280
	H2277	H	0.217655	-0.036061	0.893639
	H2278	H	0.200164	0.532747	0.842518
	H2279	H	0.215705	0.533269	0.833343
	Al2280	Al	0.180071	-0.501207	0.977718
	Al2281	Al	0.180078	-0.250913	0.977775
	Al2282	Al	0.114263	-0.252091	0.932477
	Al2283	Al	0.114283	-0.501179	0.932514
	O2284	O	0.190179	-0.460315	0.994801
	O2285	O	0.179679	-0.375918	0.964109
	O2286	O	0.180440	-0.126015	0.991447
	O2287	O	0.236191	-0.459326	1.003008
	O2288	O	0.170949	-0.459994	0.995921
	O2289	O	0.126717	-0.460124	1.022162
	O2290	O	0.170897	-0.291964	0.995765
	O2291	O	0.169979	-0.209993	0.960576
	O2292	O	0.124022	-0.210963	0.951224
	O2293	O	0.190163	-0.292046	0.995037
	O2294	O	0.189167	-0.210180	0.959572
	O2295	O	0.233367	-0.209969	0.933063
	O2296	O	0.126659	-0.292081	1.021956
	O2297	O	0.169948	-0.041784	0.960709
	O2298	O	0.123986	-0.042550	0.951179
	O2299	O	0.233387	-0.041513	0.933256
	O2300	O	0.189195	-0.042040	0.959620
	O2301	O	0.236148	-0.291129	1.003184
	O2302	O	0.117164	-0.125916	1.026483
	O2303	O	0.242962	-0.376233	0.928622
	C2304	C	0.217718	-0.285598	0.999530
	C2305	C	0.222434	-0.375545	0.999735
	C2306	C	0.217770	-0.465701	0.999087
	C2307	C	0.208628	-0.465821	0.998555
	C2308	C	0.203908	-0.375993	0.998423
	C2309	C	0.208584	-0.285763	0.998976
	C2310	C	0.194057	-0.376145	0.996042
	C2311	C	0.232276	-0.375341	1.002013
	C2312	C	0.167220	-0.375895	0.998301
	C2313	C	0.157783	-0.376104	1.004437
	C2314	C	0.153225	-0.286184	1.006611
	C2315	C	0.144341	-0.286131	1.010865
	C2316	C	0.139799	-0.375845	1.013249
	C2317	C	0.144353	-0.465622	1.011030
	C2318	C	0.153233	-0.465771	1.006752
	C2319	C	0.130394	-0.375707	1.019508
	C2320	C	0.166090	-0.126004	0.959464
	C2321	C	0.156251	-0.125947	0.956783
	C2322	C	0.151553	-0.035933	0.956428
	C2323	C	0.142411	-0.036312	0.955589
	C2324	C	0.137740	-0.126290	0.954929
	C2325	C	0.142448	-0.216156	0.955210
	C2326	C	0.151580	-0.215966	0.956066
	C2327	C	0.127880	-0.126721	0.952407
	C2328	C	0.192891	-0.126333	0.957129
	C2329	C	0.202282	-0.126384	0.950819
	C2330	C	0.206898	-0.216130	0.948814
	C2331	C	0.215759	-0.215904	0.944409
	C2332	C	0.220266	-0.125965	0.941839
	C2333	C	0.215684	-0.036246	0.944001
	C2334	C	0.206816	-0.036479	0.948389
	C2335	C	0.229663	-0.125701	0.935597
	H2336	H	0.219202	-0.285658	0.942872
	H2337	H	0.203510	-0.286388	0.950642
	H2338	H	0.221222	-0.215448	0.999832
	H2339	H	0.205014	-0.215573	0.998978
	H2340	H	0.179127	-0.375666	0.949621
	H2341	H	0.180914	-0.126658	1.006003
	H2342	H	0.116696	-0.125974	1.011977
	H2343	H	0.243652	-0.376315	0.943261
	H2344	H	0.155113	-0.285942	0.956149
	H2345	H	0.138941	-0.286449	0.954837
	H2346	H	0.140921	-0.216118	1.012424
	H2347	H	0.156625	-0.215942	1.004933
	H2348	H	0.138873	0.033435	0.955457
	H2349	H	0.155090	0.034088	0.956870
	H2350	H	0.156645	-0.535965	1.005172
	H2351	H	0.140954	-0.536014	1.012728
	H2352	H	0.205112	-0.536131	0.998232
	H2353	H	0.221311	-0.535570	0.999023
	H2354	H	0.203364	0.033597	0.949952
	H2355	H	0.219062	0.033800	0.942184
	Al2356	Al	0.180070	-0.000949	0.977818
	Al2357	Al	0.180096	0.249000	0.977650
	Al2358	Al	0.114315	0.247944	0.932573
	Al2359	Al	0.114295	-0.001229	0.932420
	O2360	O	0.190206	0.040070	0.994824
	O2361	O	0.179657	0.123976	0.964168
	O2362	O	0.180435	0.373869	0.991290
	O2363	O	0.236218	0.040523	1.002935
	O2364	O	0.170968	0.040294	0.996046
	O2365	O	0.126727	0.040032	1.022013
	O2366	O	0.170949	0.208351	0.995879
	O2367	O	0.170004	0.290125	0.960440
	O2368	O	0.124020	0.288987	0.951272
	O2369	O	0.190187	0.208330	0.994841
	O2370	O	0.189229	0.289549	0.959460
	O2371	O	0.233465	0.290013	0.933290
	O2372	O	0.126663	0.208124	1.021923
	O2373	O	0.169945	0.458307	0.960532
	O2374	O	0.123978	0.457412	0.951451
	O2375	O	0.233470	0.458106	0.933273
	O2376	O	0.189228	0.457741	0.959591
	O2377	O	0.236150	0.208632	1.003204
	O2378	O	0.117219	0.374310	1.026531
	O2379	O	0.243012	0.124148	0.928823
	C2380	C	0.217733	0.214302	0.999499
	C2381	C	0.222439	0.124397	0.999538
	C2382	C	0.217767	0.034393	0.999046
	C2383	C	0.208628	0.034341	0.998553
	C2384	C	0.203914	0.124242	0.998457
	C2385	C	0.208593	0.214239	0.998984
	C2386	C	0.194079	0.124168	0.995893
	C2387	C	0.232291	0.124484	1.002015
	C2388	C	0.167267	0.124429	0.998452
	C2389	C	0.157833	0.124519	1.004534
	C2390	C	0.153265	0.214420	1.006765
	C2391	C	0.144387	0.214116	1.011078
	C2392	C	0.139822	0.124192	1.013377
	C2393	C	0.144398	0.034210	1.011131
	C2394	C	0.153279	0.034424	1.006856
	C2395	C	0.130401	0.124045	1.019483
	C2396	C	0.166079	0.374125	0.959327
	C2397	C	0.156245	0.374146	0.956601
	C2398	C	0.151514	0.464020	0.956286
	C2399	C	0.142386	0.463756	0.955479
	C2400	C	0.137721	0.373802	0.954929
	C2401	C	0.142439	0.283962	0.955198
	C2402	C	0.151581	0.284279	0.956013
	C2403	C	0.127884	0.373216	0.952443
	C2404	C	0.192915	0.373720	0.956994
	C2405	C	0.202345	0.373998	0.950853
	C2406	C	0.206949	0.284241	0.948634
	C2407	C	0.215820	0.284140	0.944326
	C2408	C	0.220350	0.374095	0.941940
	C2409	C	0.215741	0.463878	0.944155
	C2410	C	0.206869	0.463978	0.948448
	C2411	C	0.229781	0.374096	0.935837
	H2412	H	0.219278	0.214245	0.942723
	H2413	H	0.203531	0.214105	0.950353
	H2414	H	0.221277	0.284102	0.999975
	H2415	H	0.205072	0.284544	0.999050
	H2416	H	0.179215	0.123786	0.949590
	H2417	H	0.180974	0.373787	1.005784
	H2418	H	0.116795	0.374585	1.012005
	H2419	H	0.243677	0.124315	0.943402
	H2420	H	0.155118	0.214251	0.956306
	H2421	H	0.138914	0.213924	0.954811
	H2422	H	0.140945	0.284303	1.012621
	H2423	H	0.156693	0.284562	1.005112
	H2424	H	0.138850	0.533570	0.955272
	H2425	H	0.155018	0.534302	0.956836
	H2426	H	0.156723	-0.035912	1.005231
	H2427	H	0.140986	-0.035899	1.012787
	H2428	H	0.205112	-0.035605	0.998325
	H2429	H	0.221301	-0.035592	0.999213
	H2430	H	0.203413	0.534099	0.949934
	H2431	H	0.219124	0.534084	0.942477
	Al2432	Al	0.312515	-0.500017	0.062615
	Al2433	Al	0.312533	-0.250158	0.062672
	Al2434	Al	0.246298	-0.250782	0.020304
	Al2435	Al	0.246272	-0.500763	0.020111
	O2436	O	0.322628	-0.459348	0.079894
	O2437	O	0.312126	-0.374930	0.049052
	O2438	O	0.312934	-0.124958	0.076257
	O2439	O	0.368651	-0.457790	0.087637
	O2440	O	0.303411	-0.459106	0.080927
	O2441	O	0.259108	-0.459271	0.106815
	O2442	O	0.303389	-0.290901	0.080761
	O2443	O	0.302401	-0.208964	0.045490
	O2444	O	0.256453	-0.210327	0.037165
	O2445	O	0.322624	-0.291133	0.079806
	O2446	O	0.321655	-0.208996	0.044484
	O2447	O	0.365909	-0.208526	0.018427
	O2448	O	0.259087	-0.291251	0.106749
	O2449	O	0.302376	-0.040890	0.045568
	O2450	O	0.256375	-0.042291	0.037549
	O2451	O	0.365810	-0.040429	0.018247
	O2452	O	0.321598	-0.040963	0.044286
	O2453	O	0.368594	-0.289602	0.087858
	O2454	O	0.249569	-0.125174	0.111518
	O2455	O	0.375433	-0.374499	0.013747
	C2456	C	0.350167	-0.284210	0.084091
	C2457	C	0.354883	-0.374080	0.084338
	C2458	C	0.350230	-0.464276	0.083897
	C2459	C	0.341099	-0.464522	0.083396
	C2460	C	0.336372	-0.374785	0.083207
	C2461	C	0.341029	-0.284475	0.083575
	C2462	C	0.326511	-0.375252	0.080841
	C2463	C	0.364735	-0.373851	0.086681
	C2464	C	0.299712	-0.375113	0.083311
	C2465	C	0.290288	-0.374952	0.089450
	C2466	C	0.285710	-0.285016	0.091672
	C2467	C	0.276807	-0.285016	0.095938
	C2468	C	0.272238	-0.375015	0.098191
	C2469	C	0.276846	-0.464904	0.096078
	C2470	C	0.285744	-0.464902	0.091808
	C2471	C	0.262802	-0.375232	0.104264
	C2472	C	0.298504	-0.124856	0.044496
	C2473	C	0.288649	-0.125158	0.042057
	C2474	C	0.283914	-0.035451	0.041760
	C2475	C	0.274778	-0.035764	0.041168
	C2476	C	0.270123	-0.125863	0.040861
	C2477	C	0.274855	-0.215522	0.041031
	C2478	C	0.283985	-0.215138	0.041629
	C2479	C	0.260285	-0.126226	0.038358
	C2480	C	0.325306	-0.124731	0.041848
	C2481	C	0.334742	-0.124668	0.035843
	C2482	C	0.339319	-0.214495	0.033652
	C2483	C	0.348197	-0.214384	0.029449
	C2484	C	0.352741	-0.124541	0.027069
	C2485	C	0.348171	-0.034566	0.029322
	C2486	C	0.339282	-0.034666	0.033537
	C2487	C	0.362174	-0.124592	0.020909
	H2488	H	0.351660	-0.284537	0.027986
	H2489	H	0.335930	-0.284796	0.035330
	H2490	H	0.353691	-0.213933	0.084392
	H2491	H	0.337481	-0.214348	0.083532
	H2492	H	0.311537	-0.374351	0.034510
	H2493	H	0.313442	-0.125005	0.090719
	H2494	H	0.249023	-0.124795	0.096970
	H2495	H	0.375980	-0.374667	0.028330
	H2496	H	0.287509	-0.285231	0.041765
	H2497	H	0.271364	-0.285749	0.040673
	H2498	H	0.273379	-0.214974	0.097500
	H2499	H	0.289118	-0.214906	0.090073
	H2500	H	0.271212	0.034230	0.040971
	H2501	H	0.287420	0.034815	0.041982
	H2502	H	0.289168	-0.534980	0.090258
	H2503	H	0.273474	-0.535048	0.097745
	H2504	H	0.337595	-0.534515	0.083185
	H2505	H	0.353776	-0.534325	0.083999
	H2506	H	0.335833	0.035448	0.035116
	H2507	H	0.351583	0.035635	0.027749
	Al2508	Al	0.312529	0.000006	0.062647
	Al2509	Al	0.312540	0.250198	0.062566
	Al2510	Al	0.246292	0.249197	0.020300
	Al2511	Al	0.246270	-0.000879	0.020243
	O2512	O	0.322728	0.040341	0.079575
	O2513	O	0.312128	0.124946	0.049003
	O2514	O	0.312919	0.374880	0.076263
	O2515	O	0.368644	0.041847	0.087763
	O2516	O	0.303411	0.040867	0.080852
	O2517	O	0.259184	0.039769	0.107031
	O2518	O	0.303369	0.208898	0.080716
	O2519	O	0.302405	0.291181	0.045468
	O2520	O	0.256409	0.290094	0.037353
	O2521	O	0.322627	0.208750	0.079886
	O2522	O	0.321652	0.290811	0.044403
	O2523	O	0.365906	0.291780	0.018268
	O2524	O	0.259090	0.207984	0.106822
	O2525	O	0.302370	0.459545	0.045629
	O2526	O	0.256394	0.458427	0.037210
	O2527	O	0.365871	0.460317	0.018370
	O2528	O	0.321637	0.458815	0.044435
	O2529	O	0.368613	0.210084	0.087815
	O2530	O	0.249600	0.374691	0.111517
	O2531	O	0.375407	0.125102	0.013682
	C2532	C	0.350198	0.215356	0.084005
	C2533	C	0.354905	0.125575	0.084287
	C2534	C	0.350254	0.035332	0.083805
	C2535	C	0.341114	0.035314	0.083267
	C2536	C	0.336399	0.125146	0.083128
	C2537	C	0.341056	0.215194	0.083479
	C2538	C	0.326561	0.124839	0.080756
	C2539	C	0.364743	0.125857	0.086687
	C2540	C	0.299679	0.124897	0.083242
	C2541	C	0.290254	0.124768	0.089437
	C2542	C	0.285666	0.214416	0.091740
	C2543	C	0.276790	0.214163	0.096039
	C2544	C	0.272241	0.124196	0.098266
	C2545	C	0.276851	0.034444	0.096239
	C2546	C	0.285723	0.034777	0.091882
	C2547	C	0.262818	0.124015	0.104453
	C2548	C	0.298501	0.375237	0.044453
	C2549	C	0.288635	0.375130	0.042195
	C2550	C	0.283918	0.464888	0.041928
	C2551	C	0.274788	0.464469	0.041303
	C2552	C	0.270124	0.374241	0.040838
	C2553	C	0.274837	0.284377	0.041109
	C2554	C	0.283968	0.284799	0.041720
	C2555	C	0.260274	0.374394	0.038448
	C2556	C	0.325339	0.374731	0.041899
	C2557	C	0.334763	0.374788	0.035807
	C2558	C	0.339367	0.285048	0.033532
	C2559	C	0.348239	0.285583	0.029226
	C2560	C	0.352778	0.375588	0.027018
	C2561	C	0.348147	0.465280	0.029134
	C2562	C	0.339281	0.464929	0.033423
	C2563	C	0.362177	0.376116	0.020762
	H2564	H	0.351701	0.215557	0.027699
	H2565	H	0.335954	0.214841	0.035317
	H2566	H	0.353679	0.285717	0.084314
	H2567	H	0.337521	0.285205	0.083372
	H2568	H	0.311579	0.124852	0.034498
	H2569	H	0.313592	0.374129	0.090858
	H2570	H	0.248904	0.374775	0.097008
	H2571	H	0.376148	0.124656	0.028263
	H2572	H	0.287530	0.215060	0.041826
	H2573	H	0.271334	0.214338	0.040857
	H2574	H	0.273335	0.284044	0.097597
	H2575	H	0.289044	0.284695	0.090000
	H2576	H	0.271246	0.534367	0.041155
	H2577	H	0.287433	0.535096	0.042202
	H2578	H	0.289158	-0.035293	0.090287
	H2579	H	0.273452	-0.035739	0.097930
	H2580	H	0.337611	-0.035134	0.082986
	H2581	H	0.353800	-0.034511	0.083957
	H2582	H	0.335848	0.534974	0.035116
	H2583	H	0.351557	0.535538	0.027504
	Al2584	Al	0.316281	-0.499655	0.167574
	Al2585	Al	0.316251	-0.249742	0.167364
	Al2586	Al	0.249996	-0.250187	0.125021
	Al2587	Al	0.250023	-0.500025	0.125165
	O2588	O	0.326433	-0.458776	0.184549
	O2589	O	0.315846	-0.374909	0.153872
	O2590	O	0.316629	-0.125229	0.180986
	O2591	O	0.372394	-0.458447	0.192750
	O2592	O	0.307138	-0.458740	0.185847
	O2593	O	0.262880	-0.459939	0.211762
	O2594	O	0.307155	-0.290658	0.185816
	O2595	O	0.306161	-0.209173	0.150124
	O2596	O	0.260199	-0.209945	0.142051
	O2597	O	0.326360	-0.290766	0.184618
	O2598	O	0.325395	-0.208552	0.149293
	O2599	O	0.369691	-0.208221	0.123186
	O2600	O	0.262781	-0.291692	0.211490
	O2601	O	0.306142	-0.040894	0.150202
	O2602	O	0.260073	-0.041724	0.142476
	O2603	O	0.369635	-0.040015	0.123197
	O2604	O	0.325400	-0.040440	0.149292
	O2605	O	0.372375	-0.290197	0.192730
	O2606	O	0.253352	-0.125504	0.216390
	O2607	O	0.379177	-0.374102	0.118517
	C2608	C	0.353937	-0.284130	0.189341
	C2609	C	0.358643	-0.373983	0.189435
	C2610	C	0.353984	-0.463941	0.188772
	C2611	C	0.344844	-0.464028	0.188233
	C2612	C	0.340134	-0.374288	0.188187
	C2613	C	0.344791	-0.284168	0.188806
	C2614	C	0.330277	-0.374625	0.185721
	C2615	C	0.368490	-0.374313	0.191712
	C2616	C	0.303462	-0.374711	0.188378
	C2617	C	0.294026	-0.374761	0.194475
	C2618	C	0.289387	-0.285045	0.196410
	C2619	C	0.280504	-0.285356	0.200616
	C2620	C	0.275967	-0.375353	0.203108
	C2621	C	0.280626	-0.465119	0.201151
	C2622	C	0.289505	-0.464855	0.196947
	C2623	C	0.266532	-0.375683	0.209155
	C2624	C	0.302275	-0.125085	0.149146
	C2625	C	0.292422	-0.125030	0.146898
	C2626	C	0.287702	-0.035214	0.146764
	C2627	C	0.278569	-0.035244	0.146317
	C2628	C	0.273896	-0.125305	0.145865
	C2629	C	0.278625	-0.215226	0.145964
	C2630	C	0.287771	-0.215129	0.146422
	C2631	C	0.264037	-0.125631	0.143398
	C2632	C	0.329104	-0.124683	0.146842
	C2633	C	0.338523	-0.124549	0.140570
	C2634	C	0.343116	-0.214502	0.138360
	C2635	C	0.351990	-0.214362	0.134033
	C2636	C	0.356548	-0.124413	0.131781
	C2637	C	0.351961	-0.034488	0.134020
	C2638	C	0.343084	-0.034635	0.138314
	C2639	C	0.365958	-0.124232	0.125628
	H2640	H	0.355434	-0.284476	0.132222
	H2641	H	0.339707	-0.284632	0.139958
	H2642	H	0.357444	-0.214119	0.189673
	H2643	H	0.341243	-0.214023	0.188726
	H2644	H	0.315214	-0.374558	0.139408
	H2645	H	0.317163	-0.125740	0.195626
	H2646	H	0.252845	-0.125575	0.201811
	H2647	H	0.379747	-0.374336	0.133104
	H2648	H	0.291320	-0.285242	0.146425
	H2649	H	0.275123	-0.285265	0.145650
	H2650	H	0.277004	-0.215472	0.201900
	H2651	H	0.292758	-0.214881	0.194505
	H2652	H	0.275040	0.034856	0.146286
	H2653	H	0.291204	0.034920	0.147092
	H2654	H	0.292981	-0.534556	0.195492
	H2655	H	0.277236	-0.535618	0.202875
	H2656	H	0.341351	-0.534435	0.187762
	H2657	H	0.357509	-0.534091	0.188603
	H2658	H	0.339632	0.035540	0.139869
	H2659	H	0.355325	0.036103	0.132205
	Al2660	Al	0.316275	-0.000126	0.167539
	Al2661	Al	0.316253	0.249803	0.167522
	Al2662	Al	0.249981	0.249661	0.125058
	Al2663	Al	0.250001	-0.000374	0.125166
	O2664	O	0.326362	0.041318	0.184645
	O2665	O	0.315765	0.124835	0.153930
	O2666	O	0.316651	0.375169	0.181179
	O2667	O	0.372378	0.041900	0.192699
	O2668	O	0.307145	0.040758	0.185715
	O2669	O	0.262886	0.040000	0.211743
	O2670	O	0.307139	0.208857	0.185899
	O2671	O	0.306144	0.290923	0.150326
	O2672	O	0.260155	0.290468	0.142065
	O2673	O	0.326404	0.209412	0.184572
	O2674	O	0.325404	0.290980	0.149402
	O2675	O	0.369654	0.292212	0.123240
	O2676	O	0.262810	0.208254	0.211520
	O2677	O	0.306147	0.459150	0.150425
	O2678	O	0.260117	0.458926	0.142280
	O2679	O	0.369603	0.460157	0.123018
	O2680	O	0.325365	0.459147	0.149438
	O2681	O	0.372348	0.210031	0.192860
	O2682	O	0.253323	0.374494	0.216354
	O2683	O	0.379207	0.125862	0.118545
	C2684	C	0.353917	0.215548	0.189246
	C2685	C	0.358630	0.125583	0.189317
	C2686	C	0.353956	0.035487	0.188711
	C2687	C	0.344817	0.035313	0.188196
	C2688	C	0.340113	0.125157	0.188105
	C2689	C	0.344787	0.215189	0.188713
	C2690	C	0.330270	0.125304	0.185653
	C2691	C	0.368484	0.125878	0.191685
	C2692	C	0.303437	0.124888	0.188268
	C2693	C	0.294008	0.124945	0.194396
	C2694	C	0.289390	0.214743	0.196322
	C2695	C	0.280491	0.214487	0.200580
	C2696	C	0.275968	0.124499	0.203009
	C2697	C	0.280573	0.034751	0.201005
	C2698	C	0.289465	0.035080	0.196742
	C2699	C	0.266552	0.124238	0.209165
	C2700	C	0.302264	0.375090	0.149224
	C2701	C	0.292413	0.374893	0.146896
	C2702	C	0.287717	0.464790	0.146608
	C2703	C	0.278568	0.464662	0.146027
	C2704	C	0.273882	0.374794	0.145597
	C2705	C	0.278584	0.284901	0.145905
	C2706	C	0.287725	0.284918	0.146451
	C2707	C	0.264014	0.374860	0.143236
	C2708	C	0.329076	0.375261	0.146933
	C2709	C	0.338501	0.375440	0.140677
	C2710	C	0.343102	0.285826	0.138547
	C2711	C	0.351985	0.285906	0.134214
	C2712	C	0.356511	0.375991	0.131747
	C2713	C	0.351915	0.465660	0.133867
	C2714	C	0.343025	0.465462	0.138193
	C2715	C	0.365942	0.376216	0.125652
	H2716	H	0.355383	0.215649	0.132580
	H2717	H	0.339687	0.215612	0.140272
	H2718	H	0.357445	0.285606	0.189645
	H2719	H	0.341241	0.285323	0.188751
	H2720	H	0.314996	0.124449	0.139406
	H2721	H	0.317268	0.375401	0.195616
	H2722	H	0.252833	0.373980	0.201754
	H2723	H	0.379832	0.126237	0.133114
	H2724	H	0.291263	0.214738	0.146669
	H2725	H	0.275069	0.214601	0.145743
	H2726	H	0.277055	0.284597	0.202016
	H2727	H	0.292779	0.285128	0.194556
	H2728	H	0.275033	0.534819	0.145929
	H2729	H	0.291234	0.534935	0.146946
	H2730	H	0.292905	-0.035198	0.195336
	H2731	H	0.277195	-0.035466	0.202917
	H2732	H	0.341295	-0.034956	0.187812
	H2733	H	0.357493	-0.034387	0.188702
	H2734	H	0.339595	0.535491	0.139604
	H2735	H	0.355309	0.535797	0.131941
	Al2736	Al	0.319957	-0.500072	0.272475
	Al2737	Al	0.319914	-0.249935	0.272479
	Al2738	Al	0.253722	-0.250443	0.229967
	Al2739	Al	0.253727	-0.500264	0.229927
	O2740	O	0.330046	-0.459536	0.289655
	O2741	O	0.319527	-0.375069	0.258828
	O2742	O	0.320311	-0.125126	0.285948
	O2743	O	0.375952	-0.458244	0.298837
	O2744	O	0.310833	-0.458784	0.290627
	O2745	O	0.266647	-0.460247	0.316994
	O2746	O	0.310774	-0.290612	0.290550
	O2747	O	0.309839	-0.208631	0.255213
	O2748	O	0.263858	-0.210218	0.247063
	O2749	O	0.329944	-0.291462	0.289802
	O2750	O	0.329150	-0.209316	0.254557
	O2751	O	0.373337	-0.208551	0.228059
	O2752	O	0.266551	-0.292161	0.316758
	O2753	O	0.309776	-0.040328	0.255363
	O2754	O	0.263808	-0.041785	0.247291
	O2755	O	0.373310	-0.040375	0.228030
	O2756	O	0.329048	-0.041059	0.254180
	O2757	O	0.375954	-0.289717	0.298868
	O2758	O	0.257020	-0.125556	0.321376
	O2759	O	0.382899	-0.374297	0.223616
	C2760	C	0.357518	-0.284247	0.295178
	C2761	C	0.362248	-0.373960	0.295295
	C2762	C	0.357588	-0.464161	0.294707
	C2763	C	0.348445	-0.464408	0.293975
	C2764	C	0.343716	-0.374646	0.293698
	C2765	C	0.348366	-0.284386	0.294421
	C2766	C	0.333878	-0.375242	0.291008
	C2767	C	0.372083	-0.374028	0.297777
	C2768	C	0.307101	-0.374794	0.292981
	C2769	C	0.297694	-0.375132	0.299260
	C2770	C	0.293068	-0.285409	0.301336
	C2771	C	0.284196	-0.285955	0.305711
	C2772	C	0.279688	-0.375986	0.308158
	C2773	C	0.284317	-0.465717	0.306041
	C2774	C	0.293182	-0.465256	0.301678
	C2775	C	0.270299	-0.375987	0.314494
	C2776	C	0.305928	-0.124643	0.254147
	C2777	C	0.296063	-0.124813	0.251716
	C2778	C	0.291338	-0.035072	0.251582
	C2779	C	0.282192	-0.035263	0.251121
	C2780	C	0.277555	-0.125492	0.250626
	C2781	C	0.282272	-0.215256	0.250721
	C2782	C	0.291414	-0.214981	0.251169
	C2783	C	0.267698	-0.125982	0.248308
	C2784	C	0.332793	-0.125127	0.251911
	C2785	C	0.342201	-0.124865	0.245823
	C2786	C	0.346814	-0.214686	0.243770
	C2787	C	0.355691	-0.214375	0.239399
	C2788	C	0.360220	-0.124497	0.236906
	C2789	C	0.355609	-0.034682	0.239007
	C2790	C	0.346731	-0.034895	0.243395
	C2791	C	0.369622	-0.124483	0.230594
	H2792	H	0.359118	-0.284471	0.237788
	H2793	H	0.343427	-0.285052	0.245559
	H2794	H	0.361045	-0.214396	0.295462
	H2795	H	0.344830	-0.214211	0.294165
	H2796	H	0.319009	-0.375479	0.244233
	H2797	H	0.320834	-0.125305	0.300617
	H2798	H	0.256414	-0.125934	0.306862
	H2799	H	0.383391	-0.374909	0.238169
	H2800	H	0.294932	-0.285338	0.251206
	H2801	H	0.278743	-0.285399	0.250471
	H2802	H	0.280725	-0.216136	0.307280
	H2803	H	0.296423	-0.215095	0.299541
	H2804	H	0.278675	0.034880	0.251183
	H2805	H	0.294874	0.034783	0.251917
	H2806	H	0.296651	-0.534965	0.300050
	H2807	H	0.280964	-0.536041	0.307867
	H2808	H	0.344945	-0.534476	0.293336
	H2809	H	0.361110	-0.534220	0.294670
	H2810	H	0.343279	0.035275	0.244817
	H2811	H	0.358970	0.035427	0.237101
	Al2812	Al	0.319931	0.000142	0.272510
	Al2813	Al	0.319939	0.250246	0.272470
	Al2814	Al	0.253723	0.249585	0.229880
	Al2815	Al	0.253734	-0.000530	0.230034
	O2816	O	0.330065	0.040788	0.289582
	O2817	O	0.319569	0.125175	0.258917
	O2818	O	0.320309	0.375068	0.286081
	O2819	O	0.376018	0.041842	0.298804
	O2820	O	0.310887	0.041076	0.290762
	O2821	O	0.266601	0.040221	0.316767
	O2822	O	0.310821	0.209127	0.290641
	O2823	O	0.309838	0.291027	0.255241
	O2824	O	0.263839	0.289856	0.246964
	O2825	O	0.330004	0.208884	0.289763
	O2826	O	0.329097	0.291251	0.254464
	O2827	O	0.373354	0.291672	0.228197
	O2828	O	0.266576	0.208238	0.316747
	O2829	O	0.309773	0.459309	0.255391
	O2830	O	0.263779	0.458098	0.247262
	O2831	O	0.373303	0.460005	0.228212
	O2832	O	0.329090	0.459415	0.254261
	O2833	O	0.375984	0.210305	0.298877
	O2834	O	0.257033	0.374302	0.321372
	O2835	O	0.382894	0.125943	0.223684
	C2836	C	0.357551	0.215690	0.295046
	C2837	C	0.362277	0.125922	0.295184
	C2838	C	0.357612	0.036059	0.294631
	C2839	C	0.348474	0.035743	0.293862
	C2840	C	0.343756	0.125440	0.293570
	C2841	C	0.348413	0.215385	0.294259
	C2842	C	0.333905	0.125079	0.290866
	C2843	C	0.372120	0.126031	0.297669
	C2844	C	0.307166	0.125045	0.293176
	C2845	C	0.297746	0.125035	0.299327
	C2846	C	0.293146	0.214839	0.301482
	C2847	C	0.284238	0.214348	0.305716
	C2848	C	0.279721	0.124449	0.308110
	C2849	C	0.284316	0.034837	0.305957
	C2850	C	0.293211	0.035304	0.301693
	C2851	C	0.270285	0.124255	0.314256
	C2852	C	0.305933	0.375065	0.254229
	C2853	C	0.296084	0.374739	0.251765
	C2854	C	0.291368	0.464514	0.251604
	C2855	C	0.282227	0.464299	0.251010
	C2856	C	0.277556	0.374294	0.250496
	C2857	C	0.282278	0.284464	0.250629
	C2858	C	0.291422	0.284640	0.251210
	C2859	C	0.267707	0.374136	0.248098
	C2860	C	0.332785	0.375193	0.251862
	C2861	C	0.342207	0.375087	0.245625
	C2862	C	0.346823	0.285296	0.243626
	C2863	C	0.355683	0.285434	0.239296
	C2864	C	0.360214	0.375368	0.236879
	C2865	C	0.355622	0.465042	0.239090
	C2866	C	0.346755	0.464975	0.243376
	C2867	C	0.369619	0.375641	0.230699
	H2868	H	0.359138	0.215479	0.237766
	H2869	H	0.343416	0.215203	0.245457
	H2870	H	0.361028	0.285736	0.295540
	H2871	H	0.344848	0.285338	0.294128
	H2872	H	0.319003	0.125227	0.244349
	H2873	H	0.320605	0.375319	0.300590
	H2874	H	0.256420	0.374335	0.306749
	H2875	H	0.383565	0.126058	0.238204
	H2876	H	0.294997	0.214779	0.251310
	H2877	H	0.278795	0.213816	0.250219
	H2878	H	0.280809	0.284429	0.307250
	H2879	H	0.296519	0.284847	0.299793
	H2880	H	0.278660	0.534143	0.250920
	H2881	H	0.294829	0.534833	0.251977
	H2882	H	0.296643	-0.034797	0.300195
	H2883	H	0.280942	-0.035278	0.307623
	H2884	H	0.344988	-0.034367	0.293383
	H2885	H	0.361170	-0.033938	0.294708
	H2886	H	0.343310	0.535145	0.245028
	H2887	H	0.359030	0.535161	0.237407
	Al2888	Al	0.323150	-0.499136	0.379799
	Al2889	Al	0.323181	-0.249864	0.379784
	Al2890	Al	0.257450	-0.250734	0.334939
	Al2891	Al	0.257437	-0.500614	0.334958
	O2892	O	0.331942	-0.458784	0.400911
	O2893	O	0.323147	-0.374510	0.366405
	O2894	O	0.322982	-0.124277	0.393351
	O2895	O	0.366931	-0.458780	0.476962
	O2896	O	0.313744	-0.458080	0.396988
	O2897	O	0.270179	-0.458843	0.425801
	O2898	O	0.313652	-0.289795	0.396664
	O2899	O	0.313526	-0.208404	0.361040
	O2900	O	0.267593	-0.209948	0.352136
	O2901	O	0.331976	-0.290982	0.400796
	O2902	O	0.332619	-0.208499	0.363215
	O2903	O	0.376224	-0.208316	0.334794
	O2904	O	0.270131	-0.290363	0.425746
	O2905	O	0.313459	-0.040076	0.361075
	O2906	O	0.267505	-0.041639	0.352173
	O2907	O	0.376236	-0.039947	0.334859
	O2908	O	0.332606	-0.040326	0.363277
	O2909	O	0.366870	-0.290907	0.477141
	O2910	O	0.260554	-0.124979	0.428919
	O2911	O	0.385420	-0.373839	0.331039
	C2912	C	0.353003	-0.286226	0.446282
	C2913	C	0.356549	-0.375076	0.454098
	C2914	C	0.353030	-0.464045	0.446322
	C2915	C	0.346079	-0.464092	0.431125
	C2916	C	0.342497	-0.375159	0.423376
	C2917	C	0.346063	-0.286303	0.431085
	C2918	C	0.334964	-0.374781	0.407117
	C2919	C	0.363954	-0.374913	0.470702
	C2920	C	0.310083	-0.373995	0.399614
	C2921	C	0.300818	-0.374032	0.406505
	C2922	C	0.296337	-0.284370	0.409241
	C2923	C	0.287595	-0.284620	0.414450
	C2924	C	0.283142	-0.374435	0.417059
	C2925	C	0.287620	-0.464004	0.414341
	C2926	C	0.296361	-0.463716	0.409136
	C2927	C	0.273797	-0.374455	0.423343
	C2928	C	0.309617	-0.124449	0.359977
	C2929	C	0.299773	-0.124725	0.357494
	C2930	C	0.295061	-0.034851	0.357250
	C2931	C	0.285930	-0.035071	0.356599
	C2932	C	0.281261	-0.125258	0.355983
	C2933	C	0.285988	-0.215101	0.356373
	C2934	C	0.295115	-0.214930	0.357038
	C2935	C	0.271413	-0.125655	0.353340
	C2936	C	0.336280	-0.124331	0.360803
	C2937	C	0.345602	-0.124103	0.354504
	C2938	C	0.350087	-0.213808	0.352070
	C2939	C	0.358845	-0.213887	0.346935
	C2940	C	0.363294	-0.124219	0.344154
	C2941	C	0.358820	-0.034476	0.346709
	C2942	C	0.350061	-0.034409	0.351871
	C2943	C	0.372594	-0.124165	0.337462
	H2944	H	0.362229	-0.283653	0.344977
	H2945	H	0.346730	-0.283327	0.354252
	H2946	H	0.355603	-0.217155	0.452252
	H2947	H	0.343391	-0.217103	0.425184
	H2948	H	0.322802	-0.374731	0.351880
	H2949	H	0.322695	-0.124518	0.407896
	H2950	H	0.260201	-0.124824	0.414407
	H2951	H	0.384869	-0.374552	0.345469
	H2952	H	0.298684	-0.284740	0.357260
	H2953	H	0.282471	-0.285491	0.356036
	H2954	H	0.284165	-0.215233	0.416394
	H2955	H	0.299706	-0.214762	0.407127
	H2956	H	0.282361	0.034840	0.356439
	H2957	H	0.298578	0.035038	0.357641
	H2958	H	0.299748	-0.533220	0.406931
	H2959	H	0.284225	-0.533509	0.416217
	H2960	H	0.343441	-0.533265	0.425236
	H2961	H	0.355687	-0.532950	0.452325
	H2962	H	0.346683	0.035185	0.353822
	H2963	H	0.362180	0.035194	0.344525
	Al2964	Al	0.323149	0.001082	0.379841
	Al2965	Al	0.323165	0.250098	0.379897
	Al2966	Al	0.257424	0.249285	0.334887
	Al2967	Al	0.257456	-0.000476	0.334804
	O2968	O	0.331927	0.041712	0.400833
	O2969	O	0.323136	0.125584	0.366469
	O2970	O	0.322931	0.375535	0.393390
	O2971	O	0.366948	0.041290	0.476946
	O2972	O	0.313675	0.041390	0.396925
	O2973	O	0.270127	0.040689	0.425913
	O2974	O	0.313664	0.209774	0.396856
	O2975	O	0.313475	0.291661	0.361012
	O2976	O	0.267542	0.289758	0.352063
	O2977	O	0.331972	0.209393	0.400877
	O2978	O	0.332672	0.291178	0.363443
	O2979	O	0.376204	0.292024	0.334665
	O2980	O	0.270132	0.209294	0.425700
	O2981	O	0.313424	0.460168	0.361116
	O2982	O	0.267462	0.457966	0.352370
	O2983	O	0.376164	0.460386	0.334566
	O2984	O	0.332606	0.459610	0.363281
	O2985	O	0.366933	0.209216	0.477046
	O2986	O	0.260643	0.375018	0.428775
	O2987	O	0.385457	0.126547	0.331089
	C2988	C	0.353019	0.214172	0.446217
	C2989	C	0.356600	0.125470	0.453986
	C2990	C	0.353069	0.036717	0.446168
	C2991	C	0.346110	0.036651	0.431007
	C2992	C	0.342497	0.125249	0.423358
	C2993	C	0.346075	0.214125	0.431033
	C2994	C	0.334962	0.125500	0.407099
	C2995	C	0.364016	0.125433	0.470570
	C2996	C	0.310072	0.125675	0.399639
	C2997	C	0.300777	0.125487	0.406448
	C2998	C	0.296264	0.215279	0.409076
	C2999	C	0.287532	0.214725	0.414323
	C3000	C	0.283120	0.124692	0.417068
	C3001	C	0.287656	0.034965	0.414685
	C3002	C	0.296399	0.035370	0.409433
	C3003	C	0.273801	0.124652	0.423396
	C3004	C	0.309566	0.375720	0.359981
	C3005	C	0.299724	0.375180	0.357526
	C3006	C	0.295002	0.464753	0.357302
	C3007	C	0.285874	0.464567	0.356611
	C3008	C	0.281222	0.374489	0.356069
	C3009	C	0.285952	0.284799	0.356362
	C3010	C	0.295077	0.285059	0.357065
	C3011	C	0.271365	0.374048	0.353338
	C3012	C	0.336302	0.375365	0.360949
	C3013	C	0.345625	0.375547	0.354590
	C3014	C	0.350142	0.285848	0.352372
	C3015	C	0.358875	0.285916	0.347197
	C3016	C	0.363296	0.375829	0.344197
	C3017	C	0.358811	0.465638	0.346673
	C3018	C	0.350071	0.465478	0.351840
	C3019	C	0.372578	0.376198	0.337332
	H3020	H	0.362299	0.216242	0.345353
	H3021	H	0.346777	0.216094	0.354706
	H3022	H	0.355711	0.283072	0.452114
	H3023	H	0.343411	0.282966	0.425054
	H3024	H	0.322764	0.125707	0.352090
	H3025	H	0.322451	0.375499	0.407953
	H3026	H	0.260284	0.375100	0.414261
	H3027	H	0.385103	0.126073	0.345665
	H3028	H	0.298608	0.215009	0.357154
	H3029	H	0.282446	0.214821	0.355941
	H3030	H	0.284109	0.284500	0.416306
	H3031	H	0.299602	0.285055	0.406897
	H3032	H	0.282316	0.534276	0.356353
	H3033	H	0.298516	0.534605	0.357627
	H3034	H	0.299853	-0.034239	0.407590
	H3035	H	0.284313	-0.034411	0.417012
	H3036	H	0.343473	-0.032341	0.425029
	H3037	H	0.355782	-0.032007	0.452026
	H3038	H	0.346666	0.535205	0.353754
	H3039	H	0.362170	0.535453	0.344415
	Al3040	Al	0.312464	-0.500081	0.562457
	Al3041	Al	0.312468	-0.250262	0.562440
	Al3042	Al	0.260654	-0.249570	0.442343
	Al3043	Al	0.260694	-0.500278	0.442121
	O3044	O	0.320551	-0.458836	0.585207
	O3045	O	0.313169	-0.374887	0.549300
	O3046	O	0.311732	-0.125367	0.575503
	O3047	O	0.355500	-0.459333	0.661433
	O3048	O	0.302574	-0.459058	0.577370
	O3049	O	0.259913	-0.459703	0.610255
	O3050	O	0.302509	-0.290587	0.577034
	O3051	O	0.304446	-0.208630	0.539499
	O3052	O	0.269460	-0.208987	0.463323
	O3053	O	0.320529	-0.290981	0.585160
	O3054	O	0.322424	-0.209797	0.547701
	O3055	O	0.365041	-0.209265	0.514837
	O3056	O	0.259883	-0.291290	0.610001
	O3057	O	0.304393	-0.040692	0.539525
	O3058	O	0.269464	-0.041037	0.463209
	O3059	O	0.364991	-0.040812	0.514582
	O3060	O	0.322369	-0.041210	0.547670
	O3061	O	0.355435	-0.291276	0.661509
	O3062	O	0.250725	-0.125416	0.611809
	O3063	O	0.374209	-0.375102	0.512906
	C3064	C	0.341380	-0.286511	0.631185
	C3065	C	0.344952	-0.375036	0.638944
	C3066	C	0.341369	-0.463763	0.631255
	C3067	C	0.334440	-0.463882	0.616029
	C3068	C	0.330892	-0.375052	0.608203
	C3069	C	0.334454	-0.286502	0.615979
	C3070	C	0.323498	-0.374980	0.591557
	C3071	C	0.352481	-0.375354	0.655216
	C3072	C	0.298963	-0.374787	0.579925
	C3073	C	0.289847	-0.375069	0.587308
	C3074	C	0.285446	-0.285763	0.590266
	C3075	C	0.276892	-0.285891	0.596664
	C3076	C	0.272596	-0.375514	0.600057
	C3077	C	0.276975	-0.464929	0.597013
	C3078	C	0.285557	-0.464780	0.590648
	C3079	C	0.263458	-0.375528	0.607281
	C3080	C	0.301514	-0.124657	0.533073
	C3081	C	0.294109	-0.124740	0.516392
	C3082	C	0.290573	-0.035930	0.508523
	C3083	C	0.283625	-0.035903	0.493323
	C3084	C	0.280042	-0.124890	0.485656
	C3085	C	0.283630	-0.213856	0.493373
	C3086	C	0.290576	-0.213772	0.508577
	C3087	C	0.272480	-0.124962	0.469459
	C3088	C	0.325960	-0.125551	0.544926
	C3089	C	0.335071	-0.125255	0.537534
	C3090	C	0.339481	-0.214512	0.534563
	C3091	C	0.348038	-0.214343	0.528162
	C3092	C	0.352328	-0.125009	0.524790
	C3093	C	0.347931	-0.035583	0.527822
	C3094	C	0.339356	-0.035908	0.534179
	C3095	C	0.361439	-0.125029	0.517377
	H3096	H	0.351398	-0.283122	0.525635
	H3097	H	0.336210	-0.283489	0.537364
	H3098	H	0.344064	-0.217764	0.637089
	H3099	H	0.331783	-0.217549	0.610031
	H3100	H	0.313981	-0.375498	0.535017
	H3101	H	0.310894	-0.124934	0.589823
	H3102	H	0.251710	-0.125186	0.597551
	H3103	H	0.373291	-0.375412	0.527193
	H3104	H	0.293277	-0.282751	0.514435
	H3105	H	0.280987	-0.283182	0.487430
	H3106	H	0.273515	-0.216695	0.598864
	H3107	H	0.288730	-0.216521	0.587425
	H3108	H	0.280983	0.033135	0.487307
	H3109	H	0.293258	0.033035	0.514308
	H3110	H	0.288926	-0.533499	0.588103
	H3111	H	0.273633	-0.533702	0.599623
	H3112	H	0.331772	-0.532477	0.610096
	H3113	H	0.344049	-0.532459	0.637145
	H3114	H	0.335960	0.032785	0.536616
	H3115	H	0.351190	0.033314	0.524917
	Al3116	Al	0.312460	-0.000355	0.562406
	Al3117	Al	0.312458	0.249713	0.562495
	Al3118	Al	0.260693	0.250688	0.442263
	Al3119	Al	0.260642	-0.000463	0.442324
	O3120	O	0.320500	0.040481	0.585223
	O3121	O	0.313184	0.124864	0.549303
	O3122	O	0.311764	0.374713	0.575576
	O3123	O	0.355538	0.039821	0.661354
	O3124	O	0.302543	0.040696	0.577238
	O3125	O	0.259909	0.040049	0.610205
	O3126	O	0.302534	0.209089	0.577104
	O3127	O	0.304382	0.290947	0.539724
	O3128	O	0.269512	0.291043	0.463198
	O3129	O	0.320486	0.208534	0.585331
	O3130	O	0.322459	0.290496	0.547888
	O3131	O	0.365083	0.291072	0.514590
	O3132	O	0.259829	0.208327	0.609837
	O3133	O	0.304440	0.458747	0.539633
	O3134	O	0.269519	0.458719	0.463097
	O3135	O	0.364973	0.459281	0.514269
	O3136	O	0.322411	0.458908	0.547699
	O3137	O	0.355519	0.207916	0.661289
	O3138	O	0.250675	0.374463	0.611776
	O3139	O	0.374261	0.125231	0.513016
	C3140	C	0.341342	0.212899	0.631271
	C3141	C	0.344961	0.123886	0.638904
	C3142	C	0.341365	0.034998	0.631236
	C3143	C	0.334418	0.035109	0.616045
	C3144	C	0.330850	0.124222	0.608255
	C3145	C	0.334386	0.213142	0.616070
	C3146	C	0.323426	0.124323	0.591658
	C3147	C	0.352511	0.123799	0.655087
	C3148	C	0.298983	0.124815	0.580030
	C3149	C	0.289863	0.124735	0.587326
	C3150	C	0.285463	0.213953	0.590331
	C3151	C	0.276885	0.213895	0.596648
	C3152	C	0.272592	0.124549	0.599998
	C3153	C	0.277017	0.035473	0.597110
	C3154	C	0.285583	0.035539	0.590777
	C3155	C	0.263455	0.124243	0.607276
	C3156	C	0.301481	0.375046	0.533263
	C3157	C	0.294078	0.374985	0.516564
	C3158	C	0.290569	0.463908	0.508635
	C3159	C	0.283632	0.463916	0.493351
	C3160	C	0.280039	0.375029	0.485666
	C3161	C	0.283562	0.286126	0.493515
	C3162	C	0.290483	0.286207	0.508807
	C3163	C	0.272504	0.375077	0.469429
	C3164	C	0.326003	0.374600	0.545083
	C3165	C	0.335103	0.374582	0.537659
	C3166	C	0.339458	0.285223	0.534540
	C3167	C	0.348025	0.285548	0.528061
	C3168	C	0.352338	0.374955	0.524681
	C3169	C	0.347961	0.464179	0.527777
	C3170	C	0.339407	0.464012	0.534245
	C3171	C	0.361457	0.375026	0.517224
	H3172	H	0.351405	0.216840	0.525543
	H3173	H	0.336141	0.216508	0.537372
	H3174	H	0.344010	0.281914	0.637212
	H3175	H	0.331668	0.282200	0.610223
	H3176	H	0.313928	0.124219	0.534925
	H3177	H	0.311105	0.374875	0.589943
	H3178	H	0.251571	0.374483	0.597428
	H3179	H	0.373652	0.125255	0.527504
	H3180	H	0.293102	0.217135	0.514794
	H3181	H	0.280856	0.216984	0.487701
	H3182	H	0.273478	0.282517	0.599097
	H3183	H	0.288778	0.282690	0.587693
	H3184	H	0.280984	0.533015	0.487380
	H3185	H	0.293233	0.532757	0.514525
	H3186	H	0.288977	-0.033399	0.588541
	H3187	H	0.273754	-0.033636	0.599934
	H3188	H	0.331749	-0.033816	0.610140
	H3189	H	0.344038	-0.034138	0.637139
	H3190	H	0.336094	0.533064	0.536749
	H3191	H	0.351232	0.533328	0.525043
	Al3192	Al	0.301825	-0.501712	0.745096
	Al3193	Al	0.301814	-0.250521	0.744968
	Al3194	Al	0.249963	-0.250392	0.624799
	Al3195	Al	0.249964	-0.500483	0.624877
	O3196	O	0.311562	-0.460318	0.763667
	O3197	O	0.301968	-0.375749	0.731585
	O3198	O	0.301865	-0.126141	0.758412
	O3199	O	0.357486	-0.458774	0.772762
	O3200	O	0.292390	-0.459655	0.761647
	O3201	O	0.248924	-0.460471	0.791016
	O3202	O	0.292307	-0.291469	0.761407
	O3203	O	0.293020	-0.210072	0.723941
	O3204	O	0.258077	-0.210300	0.647639
	O3205	O	0.311457	-0.291836	0.763898
	O3206	O	0.311333	-0.210367	0.728111
	O3207	O	0.354890	-0.209656	0.699204
	O3208	O	0.248834	-0.291936	0.790855
	O3209	O	0.292965	-0.042290	0.724060
	O3210	O	0.257980	-0.041957	0.647751
	O3211	O	0.354805	-0.041346	0.698830
	O3212	O	0.311230	-0.042067	0.727720
	O3213	O	0.357463	-0.290816	0.772921
	O3214	O	0.239547	-0.125936	0.794564
	O3215	O	0.364303	-0.375897	0.695835
	C3216	C	0.339019	-0.285082	0.768691
	C3217	C	0.343746	-0.374751	0.769050
	C3218	C	0.339078	-0.464747	0.768368
	C3219	C	0.329945	-0.464961	0.767666
	C3220	C	0.325229	-0.375330	0.767424
	C3221	C	0.329888	-0.285340	0.767943
	C3222	C	0.315391	-0.375813	0.765003
	C3223	C	0.353597	-0.374826	0.771619
	C3224	C	0.288711	-0.375706	0.764027
	C3225	C	0.279409	-0.375871	0.770487
	C3226	C	0.274910	-0.286152	0.772874
	C3227	C	0.266180	-0.286117	0.778260
	C3228	C	0.261763	-0.375935	0.781299
	C3229	C	0.266261	-0.465660	0.778643
	C3230	C	0.274985	-0.465633	0.773293
	C3231	C	0.252511	-0.376212	0.788189
	C3232	C	0.289999	-0.126034	0.717687
	C3233	C	0.282419	-0.126195	0.701476
	C3234	C	0.278724	-0.037310	0.694046
	C3235	C	0.271787	-0.037176	0.678850
	C3236	C	0.268355	-0.126165	0.670739
	C3237	C	0.271992	-0.214955	0.678334
	C3238	C	0.278928	-0.215106	0.693515
	C3239	C	0.260939	-0.126012	0.654103
	C3240	C	0.314913	-0.126025	0.725192
	C3241	C	0.324170	-0.125787	0.718320
	C3242	C	0.328698	-0.215506	0.715886
	C3243	C	0.337449	-0.215312	0.710647
	C3244	C	0.341867	-0.125352	0.707830
	C3245	C	0.337327	-0.035706	0.710210
	C3246	C	0.328594	-0.035821	0.715476
	C3247	C	0.351181	-0.125417	0.701436
	H3248	H	0.340905	-0.284731	0.708741
	H3249	H	0.325367	-0.285381	0.718187
	H3250	H	0.342533	-0.215044	0.769000
	H3251	H	0.326355	-0.215618	0.767675
	H3252	H	0.302221	-0.375765	0.717047
	H3253	H	0.302306	-0.125997	0.772904
	H3254	H	0.239925	-0.125656	0.780083
	H3255	H	0.364594	-0.375590	0.710395
	H3256	H	0.281695	-0.284184	0.699190
	H3257	H	0.269381	-0.283972	0.672205
	H3258	H	0.262782	-0.216677	0.780225
	H3259	H	0.278293	-0.216804	0.770680
	H3260	H	0.269012	0.031640	0.673147
	H3261	H	0.281334	0.031621	0.700124
	H3262	H	0.278428	-0.535080	0.771463
	H3263	H	0.262901	-0.535263	0.780893
	H3264	H	0.326447	-0.535037	0.767250
	H3265	H	0.342636	-0.534709	0.768422
	H3266	H	0.325201	0.033976	0.717471
	H3267	H	0.340665	0.034053	0.707977
	Al3268	Al	0.301756	-0.001761	0.744906
	Al3269	Al	0.301771	0.249184	0.745085
	Al3270	Al	0.249969	0.249324	0.624902
	Al3271	Al	0.249938	-0.000681	0.624914
	O3272	O	0.311514	0.038865	0.763568
	O3273	O	0.302013	0.123930	0.731457
	O3274	O	0.301857	0.373865	0.758472
	O3275	O	0.357438	0.040318	0.773027
	O3276	O	0.292384	0.039282	0.761683
	O3277	O	0.248873	0.038951	0.791121
	O3278	O	0.292327	0.207887	0.761544
	O3279	O	0.292988	0.290539	0.724096
	O3280	O	0.258111	0.290515	0.647452
	O3281	O	0.311434	0.207215	0.763985
	O3282	O	0.311353	0.288914	0.728318
	O3283	O	0.354819	0.289905	0.698822
	O3284	O	0.248799	0.207406	0.790904
	O3285	O	0.292918	0.458431	0.724195
	O3286	O	0.258036	0.458613	0.647595
	O3287	O	0.354827	0.458158	0.698930
	O3288	O	0.311215	0.457342	0.727864
	O3289	O	0.357418	0.208702	0.773035
	O3290	O	0.239559	0.373672	0.794484
	O3291	O	0.364386	0.124130	0.695791
	C3292	C	0.338973	0.213915	0.768696
	C3293	C	0.343688	0.124146	0.769119
	C3294	C	0.339023	0.034216	0.768522
	C3295	C	0.329899	0.033887	0.767699
	C3296	C	0.325184	0.123645	0.767459
	C3297	C	0.329839	0.213624	0.767906
	C3298	C	0.315355	0.123116	0.764935
	C3299	C	0.353540	0.124445	0.771865
	C3300	C	0.288711	0.123382	0.764084
	C3301	C	0.279377	0.123318	0.770520
	C3302	C	0.274889	0.213220	0.772959
	C3303	C	0.266155	0.213156	0.778282
	C3304	C	0.261724	0.123301	0.781245
	C3305	C	0.266193	0.033290	0.778559
	C3306	C	0.274928	0.033265	0.773221
	C3307	C	0.252436	0.123355	0.788232
	C3308	C	0.289959	0.374468	0.717858
	C3309	C	0.282393	0.374678	0.701618
	C3310	C	0.278716	0.463702	0.694099
	C3311	C	0.271807	0.463656	0.678800
	C3312	C	0.268394	0.374602	0.670712
	C3313	C	0.272012	0.285622	0.678338
	C3314	C	0.278919	0.285669	0.693645
	C3315	C	0.260987	0.374533	0.653982
	C3316	C	0.314900	0.373395	0.725374
	C3317	C	0.324173	0.373575	0.718513
	C3318	C	0.328675	0.283986	0.715832
	C3319	C	0.337407	0.284213	0.710554
	C3320	C	0.341860	0.374044	0.707907
	C3321	C	0.337362	0.463680	0.710516
	C3322	C	0.328614	0.463474	0.715790
	C3323	C	0.351168	0.374084	0.701336
	H3324	H	0.340794	0.214661	0.708509
	H3325	H	0.325332	0.214137	0.717970
	H3326	H	0.342478	0.284024	0.769029
	H3327	H	0.326272	0.283347	0.767677
	H3328	H	0.302606	0.123976	0.716999
	H3329	H	0.302234	0.373815	0.772943
	H3330	H	0.239927	0.373192	0.780009
	H3331	H	0.364741	0.124223	0.710312
	H3332	H	0.281659	0.216578	0.699412
	H3333	H	0.269419	0.216562	0.672186
	H3334	H	0.262725	0.282908	0.780193
	H3335	H	0.278244	0.282869	0.770673
	H3336	H	0.269065	0.532659	0.673105
	H3337	H	0.281270	0.532835	0.700263
	H3338	H	0.278328	-0.036356	0.771122
	H3339	H	0.262842	-0.036513	0.780686
	H3340	H	0.326396	-0.036210	0.767290
	H3341	H	0.342584	-0.035945	0.768681
	H3342	H	0.325209	0.533174	0.717860
	H3343	H	0.340759	0.533496	0.708427
	Al3344	Al	0.305086	-0.500541	0.852985
	Al3345	Al	0.305061	-0.250765	0.852798
	Al3346	Al	0.239365	-0.251508	0.807964
	Al3347	Al	0.239364	-0.500734	0.807899
	O3348	O	0.315241	-0.460002	0.869921
	O3349	O	0.304673	-0.375469	0.839300
	O3350	O	0.305456	-0.125239	0.866328
	O3351	O	0.361178	-0.458454	0.877938
	O3352	O	0.296001	-0.459382	0.871302
	O3353	O	0.251650	-0.459533	0.896780
	O3354	O	0.295937	-0.291221	0.871035
	O3355	O	0.295031	-0.209360	0.835425
	O3356	O	0.249070	-0.210252	0.826707
	O3357	O	0.315131	-0.291679	0.870142
	O3358	O	0.314208	-0.209701	0.834679
	O3359	O	0.358414	-0.208994	0.808387
	O3360	O	0.251651	-0.291762	0.896846
	O3361	O	0.294978	-0.041093	0.835532
	O3362	O	0.249003	-0.042121	0.826897
	O3363	O	0.358426	-0.040894	0.808435
	O3364	O	0.314155	-0.041597	0.834560
	O3365	O	0.361151	-0.290315	0.878188
	O3366	O	0.242177	-0.126049	0.901461
	O3367	O	0.367969	-0.375030	0.803811
	C3368	C	0.342719	-0.284545	0.874341
	C3369	C	0.347439	-0.374373	0.874528
	C3370	C	0.342800	-0.464566	0.874037
	C3371	C	0.333655	-0.464599	0.873524
	C3372	C	0.328931	-0.374862	0.873302
	C3373	C	0.333572	-0.284739	0.873818
	C3374	C	0.319061	-0.375619	0.871110
	C3375	C	0.357299	-0.374331	0.876880
	C3376	C	0.292271	-0.375474	0.873605
	C3377	C	0.282829	-0.375745	0.879597
	C3378	C	0.278238	-0.285912	0.881612
	C3379	C	0.269338	-0.286057	0.885771
	C3380	C	0.264780	-0.375804	0.888110
	C3381	C	0.269361	-0.465638	0.885995
	C3382	C	0.278267	-0.465571	0.881869
	C3383	C	0.255349	-0.375686	0.894297
	C3384	C	0.291137	-0.125299	0.834374
	C3385	C	0.281274	-0.125528	0.831793
	C3386	C	0.276577	-0.035681	0.831454
	C3387	C	0.267457	-0.035826	0.830827
	C3388	C	0.262774	-0.125751	0.830368
	C3389	C	0.267479	-0.215631	0.830733
	C3390	C	0.276607	-0.215414	0.831370
	C3391	C	0.252925	-0.126053	0.827972
	C3392	C	0.317882	-0.125556	0.832126
	C3393	C	0.327290	-0.125262	0.825886
	C3394	C	0.331873	-0.214973	0.823720
	C3395	C	0.340732	-0.214657	0.819381
	C3396	C	0.345280	-0.124821	0.817056
	C3397	C	0.340670	-0.035162	0.819033
	C3398	C	0.331798	-0.035352	0.823359
	C3399	C	0.354713	-0.124927	0.810805
	H3400	H	0.344203	-0.284563	0.817988
	H3401	H	0.328515	-0.285129	0.825651
	H3402	H	0.346240	-0.214525	0.874747
	H3403	H	0.330021	-0.214897	0.873920
	H3404	H	0.304284	-0.375706	0.824847
	H3405	H	0.306135	-0.125183	0.880820
	H3406	H	0.241680	-0.126144	0.886879
	H3407	H	0.368683	-0.375359	0.818329
	H3408	H	0.280150	-0.285364	0.831500
	H3409	H	0.263953	-0.285644	0.830386
	H3410	H	0.265899	-0.215894	0.887270
	H3411	H	0.281640	-0.215931	0.879956
	H3412	H	0.263925	0.034239	0.830548
	H3413	H	0.280104	0.034199	0.831627
	H3414	H	0.281691	-0.535539	0.880304
	H3415	H	0.265973	-0.535879	0.887615
	H3416	H	0.330157	-0.534620	0.873307
	H3417	H	0.346340	-0.534364	0.874150
	H3418	H	0.328354	0.034544	0.824978
	H3419	H	0.344053	0.035127	0.817272
	Al3420	Al	0.305058	-0.000489	0.852714
	Al3421	Al	0.305088	0.249409	0.852806
	Al3422	Al	0.239363	0.248025	0.808053
	Al3423	Al	0.239331	-0.000745	0.808074
	O3424	O	0.315229	0.040033	0.869761
	O3425	O	0.304698	0.124729	0.839162
	O3426	O	0.305486	0.373977	0.866566
	O3427	O	0.361179	0.041461	0.878132
	O3428	O	0.295904	0.040319	0.870878
	O3429	O	0.251713	0.039720	0.897113
	O3430	O	0.295910	0.208564	0.870828
	O3431	O	0.295011	0.290898	0.835507
	O3432	O	0.249061	0.289673	0.826738
	O3433	O	0.315148	0.208336	0.870179
	O3434	O	0.314206	0.290669	0.834697
	O3435	O	0.358401	0.291039	0.808312
	O3436	O	0.251694	0.207918	0.897064
	O3437	O	0.294988	0.459113	0.835820
	O3438	O	0.249061	0.458069	0.826565
	O3439	O	0.358413	0.459414	0.808400
	O3440	O	0.314202	0.458762	0.834879
	O3441	O	0.361131	0.209655	0.878074
	O3442	O	0.242212	0.373913	0.901425
	O3443	O	0.367958	0.124909	0.803903
	C3444	C	0.342698	0.215113	0.874512
	C3445	C	0.347425	0.125295	0.874596
	C3446	C	0.342767	0.035211	0.874052
	C3447	C	0.333639	0.034709	0.873492
	C3448	C	0.328911	0.124496	0.873396
	C3449	C	0.333565	0.214683	0.873905
	C3450	C	0.319060	0.124287	0.870954
	C3451	C	0.357273	0.125547	0.876980
	C3452	C	0.292212	0.124382	0.873299
	C3453	C	0.282803	0.124227	0.879481
	C3454	C	0.278231	0.214034	0.881670
	C3455	C	0.269358	0.213986	0.886051
	C3456	C	0.264820	0.124135	0.888361
	C3457	C	0.269377	0.034196	0.886077
	C3458	C	0.278262	0.034242	0.881729
	C3459	C	0.255394	0.123941	0.894535
	C3460	C	0.291112	0.374943	0.834562
	C3461	C	0.281286	0.374902	0.831877
	C3462	C	0.276566	0.464552	0.831504
	C3463	C	0.267427	0.464303	0.830665
	C3464	C	0.262776	0.374276	0.830181
	C3465	C	0.267497	0.284620	0.830345
	C3466	C	0.276635	0.284876	0.831139
	C3467	C	0.252947	0.373912	0.827760
	C3468	C	0.317893	0.374794	0.832153
	C3469	C	0.327289	0.374871	0.825871
	C3470	C	0.331893	0.285088	0.823639
	C3471	C	0.340753	0.285298	0.819289
	C3472	C	0.345295	0.375320	0.816954
	C3473	C	0.340663	0.465065	0.818891
	C3474	C	0.331796	0.464927	0.823193
	C3475	C	0.354706	0.375302	0.810790
	H3476	H	0.344196	0.215279	0.817816
	H3477	H	0.328504	0.214899	0.825450
	H3478	H	0.346208	0.285414	0.874937
	H3479	H	0.329991	0.284446	0.873949
	H3480	H	0.304146	0.125008	0.824681
	H3481	H	0.306116	0.373765	0.881126
	H3482	H	0.241714	0.373424	0.886837
	H3483	H	0.368565	0.124708	0.818432
	H3484	H	0.280186	0.215035	0.831226
	H3485	H	0.263997	0.214511	0.829805
	H3486	H	0.265952	0.283966	0.887786
	H3487	H	0.281627	0.284227	0.880075
	H3488	H	0.263881	0.534024	0.830377
	H3489	H	0.280063	0.534731	0.831833
	H3490	H	0.281680	-0.035917	0.880184
	H3491	H	0.265979	-0.035914	0.887904
	H3492	H	0.330150	-0.035636	0.873217
	H3493	H	0.346326	-0.034543	0.874222
	H3494	H	0.328342	0.534875	0.824723
	H3495	H	0.344067	0.535044	0.817063
	Al3496	Al	0.308776	-0.499914	0.957680
	Al3497	Al	0.308794	-0.250058	0.957624
	Al3498	Al	0.242498	-0.250975	0.915024
	Al3499	Al	0.242535	-0.501070	0.914999
	O3500	O	0.318922	-0.459177	0.974720
	O3501	O	0.308338	-0.375133	0.944076
	O3502	O	0.309144	-0.125235	0.971146
	O3503	O	0.364911	-0.458057	0.982826
	O3504	O	0.299698	-0.458771	0.976067
	O3505	O	0.255442	-0.459969	1.002101
	O3506	O	0.299634	-0.290706	0.975916
	O3507	O	0.298621	-0.209674	0.940477
	O3508	O	0.252618	-0.211125	0.932413
	O3509	O	0.318894	-0.290993	0.974768
	O3510	O	0.317890	-0.209392	0.939435
	O3511	O	0.362181	-0.208636	0.913485
	O3512	O	0.255379	-0.291811	1.002055
	O3513	O	0.298598	-0.041434	0.940369
	O3514	O	0.252605	-0.042512	0.932493
	O3515	O	0.362179	-0.040465	0.913548
	O3516	O	0.317854	-0.041202	0.939287
	O3517	O	0.364861	-0.289825	0.982959
	O3518	O	0.245871	-0.125738	1.006652
	O3519	O	0.371717	-0.374794	0.908827
	C3520	C	0.346461	-0.284734	0.979345
	C3521	C	0.351158	-0.374620	0.979547
	C3522	C	0.346483	-0.464748	0.979120
	C3523	C	0.337339	-0.464813	0.978578
	C3524	C	0.332639	-0.374908	0.978430
	C3525	C	0.337317	-0.284872	0.978797
	C3526	C	0.322785	-0.375059	0.975836
	C3527	C	0.360997	-0.374064	0.981897
	C3528	C	0.295989	-0.374900	0.978529
	C3529	C	0.286557	-0.375032	0.984700
	C3530	C	0.281962	-0.285192	0.986990
	C3531	C	0.273086	-0.285535	0.991270
	C3532	C	0.268552	-0.375607	0.993548
	C3533	C	0.273140	-0.465578	0.991252
	C3534	C	0.282025	-0.465186	0.986960
	C3535	C	0.259095	-0.375876	0.999556
	C3536	C	0.294716	-0.125587	0.939266
	C3537	C	0.284848	-0.125959	0.936989
	C3538	C	0.280140	-0.036225	0.936848
	C3539	C	0.270997	-0.036706	0.936301
	C3540	C	0.266338	-0.126702	0.935828
	C3541	C	0.271040	-0.216538	0.935934
	C3542	C	0.280184	-0.216053	0.936477
	C3543	C	0.256488	-0.126824	0.933450
	C3544	C	0.321562	-0.125225	0.936862
	C3545	C	0.331004	-0.125470	0.930764
	C3546	C	0.335609	-0.215222	0.928605
	C3547	C	0.344498	-0.215028	0.924365
	C3548	C	0.349052	-0.124899	0.922097
	C3549	C	0.344449	-0.035181	0.924310
	C3550	C	0.335560	-0.035435	0.928495
	C3551	C	0.358495	-0.124631	0.916008
	H3552	H	0.347942	-0.285214	0.922800
	H3553	H	0.332206	-0.285299	0.930252
	H3554	H	0.349966	-0.214646	0.979655
	H3555	H	0.333801	-0.214733	0.978673
	H3556	H	0.307665	-0.374971	0.929613
	H3557	H	0.309879	-0.125051	0.985743
	H3558	H	0.245219	-0.125597	0.992188
	H3559	H	0.372358	-0.374706	0.923346
	H3560	H	0.283742	-0.286043	0.936732
	H3561	H	0.267554	-0.286932	0.935759
	H3562	H	0.269647	-0.215365	0.992798
	H3563	H	0.285357	-0.214920	0.985364
	H3564	H	0.267444	0.033064	0.936387
	H3565	H	0.283621	0.034127	0.937322
	H3566	H	0.285463	-0.535359	0.985336
	H3567	H	0.269719	-0.535759	0.992794
	H3568	H	0.333819	-0.534915	0.978262
	H3569	H	0.349994	-0.535037	0.979270
	H3570	H	0.332131	0.034629	0.930005
	H3571	H	0.347869	0.035159	0.922651
	Al3572	Al	0.308712	-0.000332	0.957486
	Al3573	Al	0.308736	0.249614	0.957721
	Al3574	Al	0.242563	0.249340	0.915198
	Al3575	Al	0.242562	-0.000855	0.915202
	O3576	O	0.318875	0.040089	0.974731
	O3577	O	0.308323	0.124679	0.943958
	O3578	O	0.309141	0.375023	0.971256
	O3579	O	0.364886	0.041399	0.982801
	O3580	O	0.299641	0.040909	0.975808
	O3581	O	0.255427	0.039709	1.002144
	O3582	O	0.299592	0.208950	0.975717
	O3583	O	0.298668	0.290850	0.940521
	O3584	O	0.252677	0.289698	0.932323
	O3585	O	0.318833	0.208351	0.974842
	O3586	O	0.317909	0.290224	0.939564
	O3587	O	0.362155	0.291527	0.913528
	O3588	O	0.255384	0.207836	1.002022
	O3589	O	0.298610	0.459006	0.940627
	O3590	O	0.252639	0.458173	0.932334
	O3591	O	0.362108	0.459726	0.913281
	O3592	O	0.317795	0.458475	0.939289
	O3593	O	0.364821	0.209496	0.983100
	O3594	O	0.245833	0.374028	1.006598
	O3595	O	0.371728	0.126030	0.908860
	C3596	C	0.346386	0.214908	0.979374
	C3597	C	0.351108	0.125137	0.979611
	C3598	C	0.346440	0.035062	0.979118
	C3599	C	0.337311	0.034823	0.978527
	C3600	C	0.332581	0.124582	0.978283
	C3601	C	0.337262	0.214707	0.978745
	C3602	C	0.322733	0.124383	0.975843
	C3603	C	0.360959	0.125223	0.981890
	C3604	C	0.295926	0.124815	0.978222
	C3605	C	0.286530	0.124311	0.984580
	C3606	C	0.281926	0.214176	0.986729
	C3607	C	0.273049	0.214128	0.991082
	C3608	C	0.268512	0.123989	0.993426
	C3609	C	0.273107	0.034127	0.991207
	C3610	C	0.281987	0.034146	0.986846
	C3611	C	0.259100	0.123930	0.999650
	C3612	C	0.294756	0.374834	0.939451
	C3613	C	0.284903	0.374610	0.937012
	C3614	C	0.280187	0.464460	0.936701
	C3615	C	0.271054	0.464230	0.936082
	C3616	C	0.266382	0.374148	0.935804
	C3617	C	0.271100	0.284203	0.936039
	C3618	C	0.280240	0.284455	0.936635
	C3619	C	0.256535	0.374104	0.933273
	C3620	C	0.321539	0.374510	0.936922
	C3621	C	0.331000	0.374765	0.930886
	C3622	C	0.335611	0.284978	0.928845
	C3623	C	0.344487	0.285268	0.924545
	C3624	C	0.348999	0.375270	0.922082
	C3625	C	0.344376	0.464948	0.924018
	C3626	C	0.335504	0.464669	0.928323
	C3627	C	0.358433	0.375660	0.915886
	H3628	H	0.347984	0.215248	0.923238
	H3629	H	0.332261	0.214706	0.930725
	H3630	H	0.349897	0.285240	0.979668
	H3631	H	0.333703	0.284597	0.978624
	H3632	H	0.307748	0.124970	0.929421
	H3633	H	0.309750	0.374795	0.985788
	H3634	H	0.245205	0.373753	0.992110
	H3635	H	0.372375	0.126145	0.923390
	H3636	H	0.283785	0.214352	0.936962
	H3637	H	0.267591	0.214031	0.935992
	H3638	H	0.269615	0.284009	0.992767
	H3639	H	0.285322	0.284440	0.985027
	H3640	H	0.267523	0.534418	0.936040
	H3641	H	0.283706	0.534748	0.937185
	H3642	H	0.285421	-0.036230	0.985217
	H3643	H	0.269693	-0.036126	0.992932
	H3644	H	0.333804	-0.035343	0.978229
	H3645	H	0.349993	-0.034820	0.979248
	H3646	H	0.332024	0.534593	0.929805
	H3647	H	0.347754	0.535336	0.922304
	Al3648	Al	0.441220	-0.498886	0.042397
	Al3649	Al	0.441257	-0.249052	0.042455
	Al3650	Al	0.375015	-0.249638	0.000142
	Al3651	Al	0.374966	-0.499455	0.000107
	O3652	O	0.451348	-0.458237	0.059557
	O3653	O	0.440856	-0.373634	0.028772
	O3654	O	0.441664	-0.123976	0.056036
	O3655	O	0.497331	-0.458818	0.067756
	O3656	O	0.432086	-0.458121	0.060568
	O3657	O	0.387839	-0.457662	0.086636
	O3658	O	0.432129	-0.289935	0.060658
	O3659	O	0.431152	-0.207858	0.025225
	O3660	O	0.385155	-0.208749	0.017073
	O3661	O	0.451357	-0.290037	0.059540
	O3662	O	0.450386	-0.208459	0.024251
	O3663	O	0.494657	-0.207442	-0.001654
	O3664	O	0.387905	-0.289663	0.086828
	O3665	O	0.431100	-0.039500	0.025381
	O3666	O	0.385116	-0.040427	0.017291
	O3667	O	0.494577	-0.039332	-0.001990
	O3668	O	0.450274	-0.040270	0.024065
	O3669	O	0.497384	-0.290478	0.067589
	O3670	O	0.378334	-0.123999	0.091303
	O3671	O	0.504173	-0.374012	-0.006440
	C3672	C	0.478910	-0.284173	0.063983
	C3673	C	0.483610	-0.374051	0.064251
	C3674	C	0.478934	-0.463866	0.063870
	C3675	C	0.469797	-0.463848	0.063318
	C3676	C	0.465099	-0.374037	0.063077
	C3677	C	0.469767	-0.284084	0.063418
	C3678	C	0.455232	-0.374104	0.060620
	C3679	C	0.493484	-0.374433	0.066675
	C3680	C	0.428437	-0.373932	0.063116
	C3681	C	0.419007	-0.373941	0.069247
	C3682	C	0.414438	-0.283927	0.071612
	C3683	C	0.405551	-0.283922	0.075870
	C3684	C	0.401007	-0.373964	0.078113
	C3685	C	0.405578	-0.463970	0.075748
	C3686	C	0.414455	-0.464012	0.071482
	C3687	C	0.391560	-0.373812	0.084213
	C3688	C	0.427247	-0.123819	0.024215
	C3689	C	0.417378	-0.123807	0.021907
	C3690	C	0.412675	-0.033977	0.021621
	C3691	C	0.403542	-0.034236	0.021082
	C3692	C	0.398877	-0.124255	0.020686
	C3693	C	0.403580	-0.214081	0.021054
	C3694	C	0.412711	-0.213879	0.021607
	C3695	C	0.389011	-0.124535	0.018234
	C3696	C	0.454020	-0.123990	0.021640
	C3697	C	0.463440	-0.123644	0.015456
	C3698	C	0.468033	-0.213471	0.013419
	C3699	C	0.476919	-0.213309	0.009127
	C3700	C	0.481461	-0.123407	0.006701
	C3701	C	0.476853	-0.033516	0.008691
	C3702	C	0.467964	-0.033601	0.012981
	C3703	C	0.490906	-0.123461	0.000597
	H3704	H	0.480362	-0.283426	0.007778
	H3705	H	0.464661	-0.283950	0.015282
	H3706	H	0.482437	-0.214058	0.064255
	H3707	H	0.466224	-0.213988	0.063209
	H3708	H	0.440351	-0.373470	0.014212
	H3709	H	0.442117	-0.123585	0.070734
	H3710	H	0.377698	-0.123742	0.076759
	H3711	H	0.504724	-0.374254	0.008012
	H3712	H	0.416278	-0.283571	0.021838
	H3713	H	0.400070	-0.284335	0.020955
	H3714	H	0.402082	-0.213944	0.077488
	H3715	H	0.417861	-0.213629	0.070086
	H3716	H	0.399987	0.035611	0.020989
	H3717	H	0.416156	0.036266	0.021853
	H3718	H	0.417905	-0.534266	0.069810
	H3719	H	0.402172	-0.534267	0.077292
	H3720	H	0.466288	-0.533891	0.062997
	H3721	H	0.482444	-0.533945	0.063995
	H3722	H	0.464532	0.036497	0.014587
	H3723	H	0.480269	0.036823	0.007034
	Al3724	Al	0.441241	0.001248	0.042522
	Al3725	Al	0.441248	0.251443	0.042391
	Al3726	Al	0.375013	0.250221	0.000101
	Al3727	Al	0.374988	0.000108	0.000131
	O3728	O	0.451313	0.042351	0.059725
	O3729	O	0.440768	0.126249	0.028861
	O3730	O	0.441678	0.376069	0.056024
	O3731	O	0.497335	0.041494	0.067586
	O3732	O	0.432126	0.041956	0.060793
	O3733	O	0.387832	0.042296	0.086622
	O3734	O	0.432078	0.210168	0.060519
	O3735	O	0.431114	0.291959	0.025328
	O3736	O	0.385137	0.290648	0.017229
	O3737	O	0.451353	0.210467	0.059625
	O3738	O	0.450381	0.291833	0.024243
	O3739	O	0.494662	0.292405	-0.001777
	O3740	O	0.387845	0.210372	0.086643
	O3741	O	0.431104	0.460095	0.025323
	O3742	O	0.385030	0.458726	0.017424
	O3743	O	0.494598	0.460685	-0.001846
	O3744	O	0.450311	0.459941	0.024112
	O3745	O	0.497354	0.209751	0.067657
	O3746	O	0.378317	0.376107	0.091222
	O3747	O	0.504208	0.125930	-0.006464
	C3748	C	0.478894	0.215582	0.064048
	C3749	C	0.483596	0.125709	0.064190
	C3750	C	0.478904	0.035828	0.063947
	C3751	C	0.469769	0.035863	0.063458
	C3752	C	0.465065	0.125795	0.063062
	C3753	C	0.469760	0.215527	0.063511
	C3754	C	0.455225	0.126211	0.060756
	C3755	C	0.493457	0.125738	0.066553
	C3756	C	0.428414	0.126024	0.063118
	C3757	C	0.418991	0.126459	0.069305
	C3758	C	0.414428	0.216109	0.071623
	C3759	C	0.405559	0.216137	0.075942
	C3760	C	0.400980	0.126270	0.078110
	C3761	C	0.405537	0.036450	0.075722
	C3762	C	0.414408	0.036555	0.071430
	C3763	C	0.391544	0.126131	0.084224
	C3764	C	0.427212	0.376042	0.024274
	C3765	C	0.417379	0.376075	0.021872
	C3766	C	0.412658	0.465858	0.021542
	C3767	C	0.403514	0.465639	0.020995
	C3768	C	0.398840	0.375563	0.020681
	C3769	C	0.403577	0.285965	0.020889
	C3770	C	0.412710	0.286057	0.021436
	C3771	C	0.388983	0.375093	0.018306
	C3772	C	0.454051	0.375993	0.021598
	C3773	C	0.463483	0.376286	0.015440
	C3774	C	0.468061	0.286426	0.013311
	C3775	C	0.476953	0.286620	0.009127
	C3776	C	0.481501	0.376386	0.006799
	C3777	C	0.476907	0.466240	0.008926
	C3778	C	0.468034	0.466252	0.013140
	C3779	C	0.490921	0.376285	0.000643
	H3780	H	0.480397	0.216352	0.007682
	H3781	H	0.464665	0.216590	0.015038
	H3782	H	0.482428	0.285562	0.064187
	H3783	H	0.466229	0.285845	0.063337
	H3784	H	0.439974	0.126174	0.014319
	H3785	H	0.442399	0.376453	0.070526
	H3786	H	0.377732	0.376201	0.076699
	H3787	H	0.504885	0.125628	0.008041
	H3788	H	0.416245	0.215976	0.021677
	H3789	H	0.400062	0.215696	0.020776
	H3790	H	0.402155	0.286456	0.077704
	H3791	H	0.417874	0.286137	0.070052
	H3792	H	0.399966	0.535468	0.020953
	H3793	H	0.416164	0.535881	0.021892
	H3794	H	0.417814	-0.033785	0.069727
	H3795	H	0.402100	-0.033663	0.077295
	H3796	H	0.466261	-0.033944	0.063239
	H3797	H	0.482437	-0.034216	0.063965
	H3798	H	0.464606	0.536532	0.014734
	H3799	H	0.480333	0.536531	0.007297
	Al3800	Al	0.444956	-0.498830	0.147460
	Al3801	Al	0.444966	-0.249127	0.147469
	Al3802	Al	0.378769	-0.249021	0.104953
	Al3803	Al	0.378746	-0.498863	0.104893
	O3804	O	0.455072	-0.458473	0.164613
	O3805	O	0.444550	-0.374044	0.133860
	O3806	O	0.445363	-0.124035	0.161049
	O3807	O	0.501073	-0.457961	0.173911
	O3808	O	0.435853	-0.458068	0.165763
	O3809	O	0.391640	-0.458263	0.191872
	O3810	O	0.435853	-0.290008	0.165577
	O3811	O	0.434917	-0.208070	0.130101
	O3812	O	0.388907	-0.208314	0.122121
	O3813	O	0.455073	-0.290462	0.164700
	O3814	O	0.454085	-0.208616	0.129435
	O3815	O	0.498294	-0.208594	0.102952
	O3816	O	0.391600	-0.290167	0.191902
	O3817	O	0.434872	-0.039677	0.130194
	O3818	O	0.388892	-0.040009	0.121919
	O3819	O	0.498242	-0.040274	0.102846
	O3820	O	0.454057	-0.040433	0.129145
	O3821	O	0.501039	-0.289739	0.173801
	O3822	O	0.382101	-0.123991	0.196418
	O3823	O	0.507747	-0.374492	0.098551
	C3824	C	0.482609	-0.284378	0.169841
	C3825	C	0.487314	-0.374082	0.170261
	C3826	C	0.482636	-0.464007	0.169900
	C3827	C	0.473502	-0.464235	0.169127
	C3828	C	0.468790	-0.374607	0.168597
	C3829	C	0.473476	-0.284603	0.169052
	C3830	C	0.458940	-0.374463	0.165880
	C3831	C	0.497176	-0.373939	0.172756
	C3832	C	0.432170	-0.373889	0.168175
	C3833	C	0.422724	-0.373645	0.174357
	C3834	C	0.418171	-0.283787	0.176717
	C3835	C	0.409293	-0.284013	0.181048
	C3836	C	0.404759	-0.373883	0.183294
	C3837	C	0.409321	-0.463791	0.180964
	C3838	C	0.418195	-0.463600	0.176626
	C3839	C	0.395310	-0.374065	0.189466
	C3840	C	0.431017	-0.123900	0.129051
	C3841	C	0.421164	-0.123982	0.126747
	C3842	C	0.416469	-0.033940	0.126430
	C3843	C	0.407331	-0.034161	0.125858
	C3844	C	0.402647	-0.124212	0.125466
	C3845	C	0.407354	-0.214227	0.125902
	C3846	C	0.416493	-0.214015	0.126451
	C3847	C	0.392778	-0.124036	0.123116
	C3848	C	0.457758	-0.124568	0.126767
	C3849	C	0.467194	-0.124543	0.120713
	C3850	C	0.471764	-0.214516	0.118494
	C3851	C	0.480621	-0.214714	0.114130
	C3852	C	0.485191	-0.124857	0.111768
	C3853	C	0.480611	-0.034893	0.114023
	C3854	C	0.471750	-0.034772	0.118388
	C3855	C	0.494599	-0.124524	0.105503
	H3856	H	0.484084	-0.284693	0.112663
	H3857	H	0.468346	-0.284344	0.120296
	H3858	H	0.486146	-0.214555	0.170198
	H3859	H	0.469947	-0.214506	0.168734
	H3860	H	0.444000	-0.375197	0.119331
	H3861	H	0.445923	-0.123949	0.175650
	H3862	H	0.381572	-0.124326	0.181865
	H3863	H	0.507864	-0.374100	0.113141
	H3864	H	0.420028	-0.284017	0.126668
	H3865	H	0.403827	-0.284226	0.125807
	H3866	H	0.405842	-0.213651	0.182661
	H3867	H	0.421549	-0.213406	0.174940
	H3868	H	0.403806	0.036003	0.125725
	H3869	H	0.419975	0.036049	0.126646
	H3870	H	0.421609	-0.533775	0.174806
	H3871	H	0.405941	-0.534140	0.182505
	H3872	H	0.469977	-0.534434	0.168897
	H3873	H	0.486145	-0.534171	0.170261
	H3874	H	0.468309	0.035115	0.120109
	H3875	H	0.484032	0.035421	0.112417
	Al3876	Al	0.444950	0.001167	0.147357
	Al3877	Al	0.444995	0.251059	0.147466
	Al3878	Al	0.378750	0.250887	0.104898
	Al3879	Al	0.378750	0.000850	0.104934
	O3880	O	0.455107	0.041439	0.164593
	O3881	O	0.444578	0.126466	0.133817
	O3882	O	0.445339	0.375976	0.161028
	O3883	O	0.501037	0.041214	0.173934
	O3884	O	0.435870	0.042056	0.165714
	O3885	O	0.391596	0.041501	0.191912
	O3886	O	0.435839	0.210311	0.165680
	O3887	O	0.434888	0.292014	0.130094
	O3888	O	0.388879	0.291665	0.122006
	O3889	O	0.455054	0.209744	0.164724
	O3890	O	0.454108	0.292092	0.129403
	O3891	O	0.498347	0.291423	0.102977
	O3892	O	0.391636	0.209555	0.191902
	O3893	O	0.434821	0.460162	0.130294
	O3894	O	0.388824	0.459938	0.122124
	O3895	O	0.498322	0.459420	0.103111
	O3896	O	0.454082	0.460325	0.129225
	O3897	O	0.501037	0.209764	0.173975
	O3898	O	0.382107	0.375561	0.196366
	O3899	O	0.507786	0.125344	0.098502
	C3900	C	0.482621	0.215291	0.169880
	C3901	C	0.487319	0.125410	0.170201
	C3902	C	0.482618	0.035637	0.169966
	C3903	C	0.473478	0.035604	0.169100
	C3904	C	0.468795	0.125715	0.168486
	C3905	C	0.473492	0.215448	0.168993
	C3906	C	0.458967	0.125631	0.165815
	C3907	C	0.497166	0.125464	0.172837
	C3908	C	0.432183	0.126018	0.168269
	C3909	C	0.422764	0.125761	0.174441
	C3910	C	0.418184	0.215482	0.176748
	C3911	C	0.409311	0.215309	0.181027
	C3912	C	0.404739	0.125346	0.183276
	C3913	C	0.409323	0.035564	0.181028
	C3914	C	0.418215	0.035754	0.176757
	C3915	C	0.395317	0.125388	0.189437
	C3916	C	0.430958	0.375993	0.129149
	C3917	C	0.421104	0.375797	0.126807
	C3918	C	0.416402	0.465676	0.126491
	C3919	C	0.407267	0.465884	0.125997
	C3920	C	0.402576	0.376105	0.125696
	C3921	C	0.407283	0.286177	0.126065
	C3922	C	0.416414	0.285953	0.126577
	C3923	C	0.392730	0.375963	0.123087
	C3924	C	0.457791	0.376128	0.126822
	C3925	C	0.467210	0.375802	0.120682
	C3926	C	0.471774	0.285742	0.118507
	C3927	C	0.480641	0.285637	0.114176
	C3928	C	0.485230	0.375327	0.111827
	C3929	C	0.480670	0.465206	0.114071
	C3930	C	0.471799	0.465467	0.118391
	C3931	C	0.494632	0.375354	0.105556
	H3932	H	0.484062	0.215293	0.112626
	H3933	H	0.468355	0.215525	0.120274
	H3934	H	0.486122	0.285229	0.170105
	H3935	H	0.469943	0.285340	0.168563
	H3936	H	0.443910	0.126446	0.119256
	H3937	H	0.445696	0.376546	0.175592
	H3938	H	0.381642	0.375246	0.181824
	H3939	H	0.508254	0.124998	0.113148
	H3940	H	0.419940	0.215722	0.126850
	H3941	H	0.403748	0.215986	0.126016
	H3942	H	0.405890	0.285421	0.182716
	H3943	H	0.421600	0.285724	0.175162
	H3944	H	0.403760	0.535951	0.125854
	H3945	H	0.419920	0.535727	0.126727
	H3946	H	0.421654	-0.034377	0.175187
	H3947	H	0.405909	-0.034347	0.182692
	H3948	H	0.469960	-0.034458	0.168818
	H3949	H	0.486170	-0.034170	0.170277
	H3950	H	0.468403	0.535526	0.120072
	H3951	H	0.484117	0.535169	0.112444
	Al3952	Al	0.448215	-0.498304	0.255343
	Al3953	Al	0.448229	-0.249191	0.255187
	Al3954	Al	0.382478	-0.249417	0.210033
	Al3955	Al	0.382480	-0.499431	0.209974
	O3956	O	0.457049	-0.458014	0.276217
	O3957	O	0.448129	-0.374081	0.241836
	O3958	O	0.448029	-0.124035	0.268682
	O3959	O	0.491991	-0.458255	0.352641
	O3960	O	0.438790	-0.457745	0.272544
	O3961	O	0.395143	-0.457608	0.301213
	O3962	O	0.438750	-0.289459	0.272260
	O3963	O	0.438576	-0.207450	0.236350
	O3964	O	0.392596	-0.207982	0.227247
	O3965	O	0.457063	-0.290036	0.276136
	O3966	O	0.457688	-0.208696	0.238587
	O3967	O	0.501269	-0.208318	0.209853
	O3968	O	0.395138	-0.289156	0.300990
	O3969	O	0.438521	-0.039285	0.236528
	O3970	O	0.392578	-0.039993	0.227375
	O3971	O	0.501272	-0.040027	0.209942
	O3972	O	0.457646	-0.040054	0.238554
	O3973	O	0.491938	-0.290223	0.352687
	O3974	O	0.385628	-0.123831	0.304183
	O3975	O	0.510572	-0.373913	0.206189
	C3976	C	0.478106	-0.285265	0.321648
	C3977	C	0.481662	-0.373982	0.329500
	C3978	C	0.478088	-0.462690	0.321777
	C3979	C	0.471138	-0.462707	0.306556
	C3980	C	0.467593	-0.373999	0.298689
	C3981	C	0.471160	-0.285280	0.306435
	C3982	C	0.460041	-0.374079	0.282450
	C3983	C	0.489042	-0.374195	0.346200
	C3984	C	0.435133	-0.373628	0.275048
	C3985	C	0.425837	-0.373616	0.281885
	C3986	C	0.421329	-0.283817	0.284456
	C3987	C	0.412580	-0.283748	0.289680
	C3988	C	0.408147	-0.373557	0.292401
	C3989	C	0.412640	-0.463339	0.289842
	C3990	C	0.421386	-0.463518	0.284617
	C3991	C	0.398814	-0.373490	0.298762
	C3992	C	0.434656	-0.123413	0.235272
	C3993	C	0.424806	-0.123627	0.232845
	C3994	C	0.420092	-0.033941	0.232587
	C3995	C	0.410968	-0.034120	0.231763
	C3996	C	0.406299	-0.123958	0.231054
	C3997	C	0.411001	-0.213737	0.231426
	C3998	C	0.420118	-0.213380	0.232253
	C3999	C	0.396466	-0.123936	0.228419
	C4000	C	0.461342	-0.124329	0.236154
	C4001	C	0.470641	-0.124025	0.229762
	C4002	C	0.475139	-0.213933	0.227280
	C4003	C	0.483901	-0.213887	0.222197
	C4004	C	0.488362	-0.124027	0.219472
	C4005	C	0.483885	-0.034085	0.222221
	C4006	C	0.475117	-0.034128	0.227301
	C4007	C	0.497662	-0.124096	0.212713
	H4008	H	0.487323	-0.283692	0.220348
	H4009	H	0.471786	-0.283864	0.229414
	H4010	H	0.480780	-0.216209	0.327543
	H4011	H	0.468445	-0.216266	0.300624
	H4012	H	0.447772	-0.374368	0.227306
	H4013	H	0.447583	-0.124193	0.283114
	H4014	H	0.385437	-0.123277	0.289738
	H4015	H	0.510243	-0.373062	0.220702
	H4016	H	0.423663	-0.283218	0.232461
	H4017	H	0.407492	-0.283570	0.231008
	H4018	H	0.409170	-0.214142	0.291593
	H4019	H	0.424694	-0.214007	0.282234
	H4020	H	0.407406	0.035623	0.231612
	H4021	H	0.423593	0.035741	0.233027
	H4022	H	0.424758	-0.533189	0.282608
	H4023	H	0.409259	-0.533048	0.291918
	H4024	H	0.468405	-0.531321	0.300838
	H4025	H	0.480728	-0.531479	0.327755
	H4026	H	0.471731	0.035590	0.229470
	H4027	H	0.487301	0.035438	0.220424
	Al4028	Al	0.448230	0.001770	0.255251
	Al4029	Al	0.448218	0.250677	0.255202
	Al4030	Al	0.382445	0.250765	0.210053
	Al4031	Al	0.382460	0.000805	0.210090
	O4032	O	0.457061	0.041805	0.276177
	O4033	O	0.448215	0.126080	0.241804
	O4034	O	0.448018	0.376044	0.268684
	O4035	O	0.491972	0.041674	0.352699
	O4036	O	0.438767	0.042625	0.272285
	O4037	O	0.395220	0.041765	0.301297
	O4038	O	0.438732	0.211046	0.272105
	O4039	O	0.438551	0.292085	0.236342
	O4040	O	0.392557	0.291560	0.227277
	O4041	O	0.456993	0.209669	0.276275
	O4042	O	0.457754	0.291708	0.238827
	O4043	O	0.501275	0.291954	0.209673
	O4044	O	0.395136	0.210046	0.300923
	O4045	O	0.438504	0.460344	0.236576
	O4046	O	0.392558	0.459719	0.227268
	O4047	O	0.501247	0.460477	0.209674
	O4048	O	0.457711	0.460038	0.238875
	O4049	O	0.491998	0.209851	0.352569
	O4050	O	0.385613	0.376331	0.304056
	O4051	O	0.510531	0.125943	0.206275
	C4052	C	0.478111	0.214765	0.321694
	C4053	C	0.481642	0.125611	0.329619
	C4054	C	0.478093	0.036611	0.321774
	C4055	C	0.471164	0.036875	0.306563
	C4056	C	0.467579	0.126021	0.298769
	C4057	C	0.471166	0.214945	0.306527
	C4058	C	0.460029	0.125846	0.282480
	C4059	C	0.489074	0.125862	0.346209
	C4060	C	0.435134	0.126895	0.274941
	C4061	C	0.425872	0.126808	0.281797
	C4062	C	0.421363	0.216349	0.284376
	C4063	C	0.412627	0.215891	0.289660
	C4064	C	0.408192	0.126152	0.292391
	C4065	C	0.412713	0.036603	0.289916
	C4066	C	0.421451	0.036890	0.284643
	C4067	C	0.398868	0.125940	0.298750
	C4068	C	0.434645	0.376170	0.235335
	C4069	C	0.424819	0.376148	0.232807
	C4070	C	0.420108	0.465875	0.232688
	C4071	C	0.410971	0.465749	0.231884
	C4072	C	0.406293	0.375835	0.231166
	C4073	C	0.411011	0.286151	0.231451
	C4074	C	0.420148	0.286319	0.232244
	C4075	C	0.396444	0.375546	0.228514
	C4076	C	0.461387	0.376109	0.236337
	C4077	C	0.470713	0.376329	0.229936
	C4078	C	0.475203	0.286472	0.227385
	C4079	C	0.483938	0.286306	0.222046
	C4080	C	0.488357	0.376150	0.219168
	C4081	C	0.483889	0.465924	0.221937
	C4082	C	0.475144	0.466034	0.227250
	C4083	C	0.497634	0.376249	0.212337
	H4084	H	0.487309	0.216779	0.219903
	H4085	H	0.471815	0.217179	0.229489
	H4086	H	0.480813	0.283966	0.327564
	H4087	H	0.468501	0.284327	0.300505
	H4088	H	0.447868	0.126018	0.227261
	H4089	H	0.447620	0.376046	0.283194
	H4090	H	0.385195	0.376589	0.289511
	H4091	H	0.510204	0.126211	0.220826
	H4092	H	0.423704	0.216532	0.232367
	H4093	H	0.407499	0.216103	0.231027
	H4094	H	0.409214	0.285320	0.291653
	H4095	H	0.424686	0.286164	0.282190
	H4096	H	0.407408	0.535779	0.231811
	H4097	H	0.423603	0.535641	0.233082
	H4098	H	0.424868	-0.032649	0.282650
	H4099	H	0.409375	-0.033104	0.292103
	H4100	H	0.468501	-0.032435	0.300613
	H4101	H	0.480782	-0.032680	0.327717
	H4102	H	0.471753	0.535775	0.229249
	H4103	H	0.487231	0.535789	0.219745
	Al4104	Al	0.437448	-0.499635	0.437646
	Al4105	Al	0.437472	-0.249598	0.437551
	Al4106	Al	0.385691	-0.248523	0.317631
	Al4107	Al	0.385670	-0.499120	0.317539
	O4108	O	0.445513	-0.458986	0.460470
	O4109	O	0.438249	-0.374784	0.424526
	O4110	O	0.436770	-0.124689	0.450644
	O4111	O	0.480518	-0.459318	0.536785
	O4112	O	0.427574	-0.458154	0.452499
	O4113	O	0.384902	-0.458944	0.485136
	O4114	O	0.427535	-0.289992	0.452305
	O4115	O	0.429441	-0.208453	0.414691
	O4116	O	0.394478	-0.208032	0.338570
	O4117	O	0.445534	-0.290990	0.460463
	O4118	O	0.447393	-0.208626	0.422614
	O4119	O	0.490159	-0.208688	0.390560
	O4120	O	0.384856	-0.290533	0.485006
	O4121	O	0.429473	-0.040430	0.414711
	O4122	O	0.394430	-0.040044	0.338696
	O4123	O	0.490116	-0.040193	0.390321
	O4124	O	0.447400	-0.040341	0.422774
	O4125	O	0.480434	-0.291435	0.537043
	O4126	O	0.375634	-0.125010	0.486781
	O4127	O	0.499230	-0.374887	0.388675
	C4128	C	0.466277	-0.286269	0.506820
	C4129	C	0.469895	-0.375302	0.514481
	C4130	C	0.466387	-0.464211	0.506516
	C4131	C	0.459462	-0.463967	0.491277
	C4132	C	0.455842	-0.375119	0.483617
	C4133	C	0.459358	-0.286228	0.491555
	C4134	C	0.448448	-0.375067	0.466963
	C4135	C	0.477463	-0.375325	0.530656
	C4136	C	0.423977	-0.374064	0.455135
	C4137	C	0.414831	-0.374447	0.462383
	C4138	C	0.410441	-0.285287	0.465304
	C4139	C	0.401886	-0.285290	0.471705
	C4140	C	0.397583	-0.374455	0.475056
	C4141	C	0.401944	-0.463625	0.472074
	C4142	C	0.410514	-0.463699	0.465749
	C4143	C	0.388452	-0.374529	0.482332
	C4144	C	0.426533	-0.124404	0.408235
	C4145	C	0.419124	-0.124247	0.391682
	C4146	C	0.415571	-0.035191	0.383874
	C4147	C	0.408593	-0.034883	0.368770
	C4148	C	0.405003	-0.123881	0.361074
	C4149	C	0.408616	-0.212978	0.368687
	C4150	C	0.415582	-0.213114	0.383804
	C4151	C	0.397463	-0.124070	0.344874
	C4152	C	0.450982	-0.124410	0.420032
	C4153	C	0.460129	-0.124170	0.412812
	C4154	C	0.464504	-0.213413	0.409793
	C4155	C	0.473078	-0.213324	0.403517
	C4156	C	0.477409	-0.124163	0.400304
	C4157	C	0.473028	-0.034947	0.403182
	C4158	C	0.464445	-0.034962	0.409476
	C4159	C	0.486571	-0.124408	0.393184
	H4160	H	0.476450	-0.281893	0.401155
	H4161	H	0.461204	-0.282365	0.412492
	H4162	H	0.468929	-0.217189	0.512738
	H4163	H	0.456652	-0.217245	0.485681
	H4164	H	0.439079	-0.375028	0.410204
	H4165	H	0.435947	-0.124355	0.464956
	H4166	H	0.376410	-0.125374	0.472484
	H4167	H	0.498459	-0.374434	0.402998
	H4168	H	0.418288	-0.282349	0.389612
	H4169	H	0.405965	-0.281972	0.362649
	H4170	H	0.398528	-0.216714	0.474072
	H4171	H	0.413747	-0.216649	0.462573
	H4172	H	0.405939	0.034114	0.362814
	H4173	H	0.418263	0.033738	0.389735
	H4174	H	0.413872	-0.532488	0.463366
	H4175	H	0.398630	-0.532219	0.474751
	H4176	H	0.456835	-0.532967	0.485203
	H4177	H	0.469145	-0.533526	0.512292
	H4178	H	0.461076	0.033658	0.411905
	H4179	H	0.476340	0.033688	0.400532
	Al4180	Al	0.437459	0.000475	0.437603
	Al4181	Al	0.437460	0.250434	0.437690
	Al4182	Al	0.385686	0.251673	0.317573
	Al4183	Al	0.385679	0.000703	0.317741
	O4184	O	0.445520	0.041180	0.460428
	O4185	O	0.438253	0.125473	0.424535
	O4186	O	0.436665	0.375207	0.450766
	O4187	O	0.480469	0.040848	0.536667
	O4188	O	0.427558	0.041229	0.452400
	O4189	O	0.384876	0.040475	0.485244
	O4190	O	0.427485	0.209677	0.452296
	O4191	O	0.429455	0.292214	0.414735
	O4192	O	0.394492	0.291907	0.338473
	O4193	O	0.445439	0.209264	0.460573
	O4194	O	0.447427	0.290889	0.422960
	O4195	O	0.490101	0.291190	0.390172
	O4196	O	0.384854	0.208763	0.485012
	O4197	O	0.429379	0.460473	0.414806
	O4198	O	0.394426	0.459904	0.338597
	O4199	O	0.490069	0.459590	0.390165
	O4200	O	0.447381	0.459293	0.422851
	O4201	O	0.480440	0.208810	0.536701
	O4202	O	0.375741	0.375122	0.486651
	O4203	O	0.499276	0.125453	0.388513
	C4204	C	0.466219	0.213532	0.506755
	C4205	C	0.469870	0.124646	0.514298
	C4206	C	0.466302	0.035788	0.506500
	C4207	C	0.459362	0.035903	0.491320
	C4208	C	0.455784	0.124838	0.483603
	C4209	C	0.459278	0.213598	0.491576
	C4210	C	0.448382	0.125172	0.466964
	C4211	C	0.477438	0.124927	0.530483
	C4212	C	0.423950	0.125414	0.455096
	C4213	C	0.414820	0.124715	0.462391
	C4214	C	0.410438	0.213775	0.465465
	C4215	C	0.401877	0.213564	0.471874
	C4216	C	0.397574	0.124350	0.475205
	C4217	C	0.401960	0.035089	0.472194
	C4218	C	0.410523	0.035341	0.465801
	C4219	C	0.388427	0.124338	0.482381
	C4220	C	0.426473	0.376139	0.408406
	C4221	C	0.419079	0.376334	0.391719
	C4222	C	0.415492	0.465100	0.383977
	C4223	C	0.408547	0.465275	0.368778
	C4224	C	0.405015	0.376224	0.360969
	C4225	C	0.408641	0.287557	0.368633
	C4226	C	0.415579	0.287510	0.383835
	C4227	C	0.397444	0.376005	0.344763
	C4228	C	0.450968	0.375188	0.420152
	C4229	C	0.460102	0.375136	0.412831
	C4230	C	0.464459	0.285795	0.409833
	C4231	C	0.473038	0.285663	0.403484
	C4232	C	0.477368	0.375203	0.400172
	C4233	C	0.472994	0.464571	0.403129
	C4234	C	0.464426	0.464518	0.409491
	C4235	C	0.486521	0.375244	0.392923
	H4236	H	0.476418	0.216821	0.401156
	H4237	H	0.461152	0.216935	0.412543
	H4238	H	0.468843	0.282214	0.512794
	H4239	H	0.456533	0.282599	0.485845
	H4240	H	0.439231	0.125393	0.410356
	H4241	H	0.435783	0.375730	0.465051
	H4242	H	0.376563	0.374139	0.472386
	H4243	H	0.498490	0.126142	0.402872
	H4244	H	0.418259	0.218501	0.389757
	H4245	H	0.405995	0.218662	0.362628
	H4246	H	0.398503	0.282281	0.474306
	H4247	H	0.413747	0.282689	0.462752
	H4248	H	0.405827	0.534016	0.362970
	H4249	H	0.418113	0.533936	0.390087
	H4250	H	0.413880	-0.033356	0.463393
	H4251	H	0.398654	-0.033450	0.474867
	H4252	H	0.456665	-0.032875	0.485406
	H4253	H	0.468999	-0.033033	0.512317
	H4254	H	0.461045	0.533477	0.411915
	H4255	H	0.476330	0.533352	0.400530
	Al4256	Al	0.426801	-0.500922	0.619948
	Al4257	Al	0.426791	-0.250111	0.619780
	Al4258	Al	0.374935	-0.249752	0.499874
	Al4259	Al	0.374960	-0.499888	0.499770
	O4260	O	0.436491	-0.459520	0.638708
	O4261	O	0.427006	-0.375611	0.606425
	O4262	O	0.426848	-0.125821	0.633250
	O4263	O	0.482479	-0.458198	0.647887
	O4264	O	0.417359	-0.459295	0.636573
	O4265	O	0.373796	-0.459873	0.665454
	O4266	O	0.417326	-0.290858	0.636430
	O4267	O	0.417998	-0.209157	0.598842
	O4268	O	0.382988	-0.209045	0.522681
	O4269	O	0.436448	-0.291237	0.638664
	O4270	O	0.436281	-0.209849	0.602886
	O4271	O	0.479880	-0.208589	0.574456
	O4272	O	0.373760	-0.291334	0.665400
	O4273	O	0.417993	-0.041526	0.598871
	O4274	O	0.382916	-0.041065	0.522803
	O4275	O	0.479772	-0.040295	0.574132
	O4276	O	0.436192	-0.041489	0.602671
	O4277	O	0.482469	-0.289994	0.647966
	O4278	O	0.364532	-0.125916	0.668996
	O4279	O	0.489394	-0.375118	0.571261
	C4280	C	0.464005	-0.284313	0.643789
	C4281	C	0.468734	-0.373990	0.644047
	C4282	C	0.464073	-0.464011	0.643426
	C4283	C	0.454945	-0.464449	0.642647
	C4284	C	0.450214	-0.374781	0.642362
	C4285	C	0.454864	-0.284620	0.643006
	C4286	C	0.440344	-0.375311	0.639906
	C4287	C	0.478596	-0.373981	0.646765
	C4288	C	0.413689	-0.375184	0.638997
	C4289	C	0.404363	-0.375119	0.645347
	C4290	C	0.399868	-0.285180	0.647887
	C4291	C	0.391120	-0.285032	0.653087
	C4292	C	0.386666	-0.375053	0.655827
	C4293	C	0.391156	-0.465092	0.653221
	C4294	C	0.399904	-0.465025	0.648029
	C4295	C	0.377411	-0.375435	0.662702
	C4296	C	0.414987	-0.125160	0.592624
	C4297	C	0.407418	-0.124921	0.576417
	C4298	C	0.403786	-0.036238	0.568752
	C4299	C	0.396821	-0.036258	0.553599
	C4300	C	0.393310	-0.125086	0.545741
	C4301	C	0.396929	-0.213955	0.553442
	C4302	C	0.403888	-0.213735	0.568580
	C4303	C	0.385873	-0.124972	0.529198
	C4304	C	0.439870	-0.125513	0.600105
	C4305	C	0.449152	-0.125485	0.593382
	C4306	C	0.453683	-0.215220	0.591029
	C4307	C	0.462430	-0.214755	0.585884
	C4308	C	0.466846	-0.124803	0.583020
	C4309	C	0.462312	-0.035141	0.585257
	C4310	C	0.453554	-0.035568	0.590384
	C4311	C	0.476181	-0.124588	0.576765
	H4312	H	0.465883	-0.284309	0.584186
	H4313	H	0.450372	-0.285165	0.593246
	H4314	H	0.467523	-0.214329	0.644173
	H4315	H	0.451317	-0.214855	0.642772
	H4316	H	0.427505	-0.375484	0.591927
	H4317	H	0.427183	-0.126191	0.647715
	H4318	H	0.364953	-0.126056	0.654476
	H4319	H	0.489748	-0.375732	0.585773
	H4320	H	0.406613	-0.282791	0.574383
	H4321	H	0.394301	-0.283164	0.547446
	H4322	H	0.387735	-0.215326	0.655107
	H4323	H	0.403262	-0.215513	0.645873
	H4324	H	0.394111	0.032969	0.547759
	H4325	H	0.406429	0.032751	0.574769
	H4326	H	0.403334	-0.534819	0.646122
	H4327	H	0.387795	-0.534909	0.655377
	H4328	H	0.451448	-0.534472	0.642140
	H4329	H	0.467609	-0.534221	0.643464
	H4330	H	0.450132	0.033934	0.592231
	H4331	H	0.465659	0.034396	0.583033
	Al4332	Al	0.426791	-0.001083	0.619876
	Al4333	Al	0.426796	0.250130	0.619984
	Al4334	Al	0.374989	0.250398	0.499897
	Al4335	Al	0.374896	0.000089	0.499874
	O4336	O	0.436493	0.040156	0.638630
	O4337	O	0.426969	0.124576	0.606432
	O4338	O	0.426790	0.374589	0.633390
	O4339	O	0.482482	0.041603	0.647935
	O4340	O	0.417358	0.040286	0.636562
	O4341	O	0.373795	0.040423	0.665244
	O4342	O	0.417369	0.208551	0.636591
	O4343	O	0.417988	0.290163	0.598966
	O4344	O	0.383072	0.290783	0.522573
	O4345	O	0.436458	0.208602	0.638727
	O4346	O	0.436287	0.290328	0.602960
	O4347	O	0.479875	0.290794	0.574273
	O4348	O	0.373806	0.208762	0.665315
	O4349	O	0.418001	0.458245	0.599037
	O4350	O	0.382984	0.458931	0.522727
	O4351	O	0.479834	0.459014	0.574013
	O4352	O	0.436270	0.458814	0.602970
	O4353	O	0.482426	0.209910	0.648090
	O4354	O	0.364462	0.374400	0.668886
	O4355	O	0.489387	0.124764	0.571059
	C4356	C	0.463981	0.215029	0.643862
	C4357	C	0.468724	0.125427	0.644096
	C4358	C	0.464053	0.035303	0.643378
	C4359	C	0.454935	0.034995	0.642558
	C4360	C	0.450205	0.124730	0.642334
	C4361	C	0.454859	0.214764	0.643025
	C4362	C	0.440352	0.124402	0.639823
	C4363	C	0.478571	0.125681	0.646897
	C4364	C	0.413697	0.124559	0.638966
	C4365	C	0.404363	0.124275	0.645276
	C4366	C	0.399901	0.214070	0.647958
	C4367	C	0.391145	0.214200	0.653097
	C4368	C	0.386685	0.124480	0.655685
	C4369	C	0.391154	0.034725	0.653048
	C4370	C	0.399897	0.034580	0.647866
	C4371	C	0.377396	0.124459	0.662500
	C4372	C	0.415005	0.374387	0.592758
	C4373	C	0.407444	0.374560	0.576499
	C4374	C	0.403813	0.463542	0.568877
	C4375	C	0.396864	0.463881	0.553649
	C4376	C	0.393377	0.374978	0.545744
	C4377	C	0.397013	0.286056	0.553334
	C4378	C	0.403946	0.285686	0.568577
	C4379	C	0.385951	0.374901	0.529078
	C4380	C	0.439892	0.374728	0.600198
	C4381	C	0.449165	0.374606	0.593373
	C4382	C	0.453645	0.285095	0.590780
	C4383	C	0.462382	0.285506	0.585602
	C4384	C	0.466846	0.375117	0.582896
	C4385	C	0.462350	0.464807	0.585297
	C4386	C	0.453613	0.464440	0.590499
	C4387	C	0.476187	0.374919	0.576540
	H4388	H	0.465824	0.216203	0.583629
	H4389	H	0.450295	0.215537	0.592902
	H4390	H	0.467490	0.285222	0.644251
	H4391	H	0.451280	0.284438	0.642811
	H4392	H	0.427326	0.125159	0.591888
	H4393	H	0.426929	0.374475	0.648009
	H4394	H	0.364787	0.374593	0.654405
	H4395	H	0.489715	0.124679	0.585537
	H4396	H	0.406696	0.216614	0.574303
	H4397	H	0.394395	0.217067	0.547276
	H4398	H	0.387767	0.283939	0.655137
	H4399	H	0.403299	0.283460	0.645924
	H4400	H	0.394145	0.532880	0.547885
	H4401	H	0.406444	0.532508	0.574896
	H4402	H	0.403278	-0.034812	0.645849
	H4403	H	0.387761	-0.034958	0.655092
	H4404	H	0.451441	-0.035088	0.641978
	H4405	H	0.467645	-0.034155	0.643377
	H4406	H	0.450178	0.534102	0.592416
	H4407	H	0.465701	0.534388	0.583122
	Al4408	Al	0.430037	-0.500095	0.727580
	Al4409	Al	0.430021	-0.249789	0.727756
	Al4410	Al	0.364286	-0.251145	0.682479
	Al4411	Al	0.364254	-0.500284	0.682309
	O4412	O	0.440168	-0.459466	0.744773
	O4413	O	0.429682	-0.374777	0.714074
	O4414	O	0.430458	-0.124775	0.741359
	O4415	O	0.486167	-0.457736	0.753037
	O4416	O	0.420933	-0.458535	0.745773
	O4417	O	0.376696	-0.458941	0.772112
	O4418	O	0.420874	-0.290429	0.745768
	O4419	O	0.419924	-0.208555	0.710577
	O4420	O	0.373936	-0.209850	0.701458
	O4421	O	0.440099	-0.291087	0.745062
	O4422	O	0.439140	-0.208974	0.709450
	O4423	O	0.483364	-0.208537	0.683274
	O4424	O	0.376675	-0.290714	0.772099
	O4425	O	0.419901	-0.040366	0.710684
	O4426	O	0.373977	-0.041490	0.701121
	O4427	O	0.483422	-0.040522	0.683418
	O4428	O	0.439152	-0.040965	0.709470
	O4429	O	0.486104	-0.289657	0.753121
	O4430	O	0.367183	-0.124958	0.776584
	O4431	O	0.492979	-0.374492	0.678860
	C4432	C	0.467666	-0.284291	0.749369
	C4433	C	0.472400	-0.374057	0.749613
	C4434	C	0.467742	-0.464355	0.749145
	C4435	C	0.458605	-0.464565	0.748602
	C4436	C	0.453865	-0.374824	0.748298
	C4437	C	0.458536	-0.284622	0.748806
	C4438	C	0.444013	-0.375088	0.745909
	C4439	C	0.482239	-0.373814	0.751976
	C4440	C	0.417222	-0.374666	0.748321
	C4441	C	0.407771	-0.374625	0.754310
	C4442	C	0.403199	-0.284628	0.756579
	C4443	C	0.394315	-0.284757	0.760910
	C4444	C	0.389780	-0.374750	0.763349
	C4445	C	0.394340	-0.464693	0.761036
	C4446	C	0.403215	-0.464599	0.756687
	C4447	C	0.380353	-0.374713	0.769472
	C4448	C	0.416045	-0.124463	0.709357
	C4449	C	0.406211	-0.124982	0.706617
	C4450	C	0.401493	-0.035351	0.706194
	C4451	C	0.392362	-0.035859	0.705355
	C4452	C	0.387686	-0.125903	0.704868
	C4453	C	0.392418	-0.215571	0.705052
	C4454	C	0.401558	-0.215081	0.705888
	C4455	C	0.377831	-0.125743	0.702374
	C4456	C	0.442851	-0.124894	0.706997
	C4457	C	0.452244	-0.124917	0.700787
	C4458	C	0.456865	-0.214582	0.698701
	C4459	C	0.465754	-0.214531	0.694402
	C4460	C	0.470289	-0.124514	0.691992
	C4461	C	0.465688	-0.034728	0.694186
	C4462	C	0.456796	-0.034894	0.698450
	C4463	C	0.479690	-0.124500	0.685795
	H4464	H	0.469198	-0.284545	0.692895
	H4465	H	0.453470	-0.284750	0.700507
	H4466	H	0.471177	-0.213960	0.749786
	H4467	H	0.454989	-0.214662	0.748856
	H4468	H	0.429386	-0.374585	0.699477
	H4469	H	0.431104	-0.124300	0.755919
	H4470	H	0.366762	-0.124956	0.762023
	H4471	H	0.493590	-0.374944	0.693448
	H4472	H	0.405131	-0.284980	0.706264
	H4473	H	0.388910	-0.285670	0.704847
	H4474	H	0.390866	-0.214582	0.762455
	H4475	H	0.406615	-0.214597	0.754938
	H4476	H	0.388822	0.034138	0.705340
	H4477	H	0.405006	0.034899	0.706731
	H4478	H	0.406658	-0.534755	0.755139
	H4479	H	0.390939	-0.534742	0.762711
	H4480	H	0.455092	-0.534806	0.748473
	H4481	H	0.471300	-0.534170	0.749380
	H4482	H	0.453370	0.035336	0.700040
	H4483	H	0.469094	0.035596	0.692502
	Al4484	Al	0.430056	0.000037	0.727654
	Al4485	Al	0.430051	0.249935	0.727719
	Al4486	Al	0.364305	0.248676	0.682351
	Al4487	Al	0.364299	-0.000396	0.682317
	O4488	O	0.440212	0.040407	0.744735
	O4489	O	0.429632	0.125232	0.714015
	O4490	O	0.430450	0.374976	0.741216
	O4491	O	0.486216	0.042424	0.752878
	O4492	O	0.420953	0.040841	0.745780
	O4493	O	0.376690	0.040362	0.772129
	O4494	O	0.420887	0.208964	0.745808
	O4495	O	0.419932	0.291112	0.710420
	O4496	O	0.373991	0.289783	0.701203
	O4497	O	0.440095	0.208575	0.745119
	O4498	O	0.439171	0.290929	0.709537
	O4499	O	0.483459	0.291421	0.683429
	O4500	O	0.376664	0.208461	0.772086
	O4501	O	0.419926	0.459450	0.710525
	O4502	O	0.373922	0.458207	0.701133
	O4503	O	0.483416	0.459581	0.683300
	O4504	O	0.439157	0.459234	0.709454
	O4505	O	0.486104	0.210438	0.753141
	O4506	O	0.367131	0.374935	0.776651
	O4507	O	0.492980	0.125548	0.678837
	C4508	C	0.467699	0.215501	0.749217
	C4509	C	0.472422	0.125704	0.749508
	C4510	C	0.467762	0.035649	0.749052
	C4511	C	0.458621	0.035483	0.748564
	C4512	C	0.453902	0.125197	0.748357
	C4513	C	0.458554	0.215229	0.748727
	C4514	C	0.444025	0.124702	0.745964
	C4515	C	0.482291	0.126187	0.751946
	C4516	C	0.417211	0.124860	0.748214
	C4517	C	0.407800	0.124744	0.754415
	C4518	C	0.403200	0.214430	0.756510
	C4519	C	0.394320	0.214272	0.760905
	C4520	C	0.389766	0.124371	0.763250
	C4521	C	0.394356	0.034618	0.761077
	C4522	C	0.403250	0.034851	0.756700
	C4523	C	0.380374	0.124457	0.769613
	C4524	C	0.416049	0.375161	0.709255
	C4525	C	0.406207	0.375242	0.706520
	C4526	C	0.401483	0.465056	0.705983
	C4527	C	0.392357	0.464740	0.705116
	C4528	C	0.387693	0.374681	0.704739
	C4529	C	0.392424	0.284946	0.705062
	C4530	C	0.401549	0.285212	0.705957
	C4531	C	0.377835	0.374078	0.702185
	C4532	C	0.442855	0.374825	0.706896
	C4533	C	0.452269	0.375095	0.700710
	C4534	C	0.456855	0.285330	0.698590
	C4535	C	0.465738	0.285723	0.694325
	C4536	C	0.470260	0.375500	0.691860
	C4537	C	0.465677	0.465138	0.694002
	C4538	C	0.456791	0.464906	0.698280
	C4539	C	0.479734	0.375520	0.685821
	H4540	H	0.469180	0.215740	0.692833
	H4541	H	0.453480	0.215100	0.700209
	H4542	H	0.471194	0.285769	0.749506
	H4543	H	0.454999	0.285024	0.748605
	H4544	H	0.428990	0.125529	0.699487
	H4545	H	0.431214	0.375434	0.755643
	H4546	H	0.366687	0.374250	0.762134
	H4547	H	0.493688	0.125371	0.693324
	H4548	H	0.405100	0.215240	0.706394
	H4549	H	0.388926	0.214812	0.704834
	H4550	H	0.390906	0.284619	0.762514
	H4551	H	0.406568	0.284873	0.754710
	H4552	H	0.388806	0.534308	0.704957
	H4553	H	0.404992	0.535185	0.706514
	H4554	H	0.406663	-0.035323	0.755037
	H4555	H	0.390974	-0.035633	0.762889
	H4556	H	0.455132	-0.034654	0.748373
	H4557	H	0.471307	-0.034509	0.749235
	H4558	H	0.453341	0.534919	0.699746
	H4559	H	0.469062	0.535341	0.692247
	Al4560	Al	0.433776	-0.499805	0.832665
	Al4561	Al	0.433776	-0.249467	0.832625
	Al4562	Al	0.367540	-0.250075	0.790235
	Al4563	Al	0.367514	-0.499965	0.790205
	O4564	O	0.443865	-0.458681	0.849782
	O4565	O	0.433349	-0.374416	0.819029
	O4566	O	0.434221	-0.124613	0.846312
	O4567	O	0.489921	-0.457423	0.857842
	O4568	O	0.424712	-0.458465	0.851059
	O4569	O	0.380480	-0.458553	0.877199
	O4570	O	0.424645	-0.290395	0.850676
	O4571	O	0.423695	-0.208234	0.815436
	O4572	O	0.377714	-0.209171	0.807288
	O4573	O	0.443843	-0.290524	0.849889
	O4574	O	0.442955	-0.208611	0.814652
	O4575	O	0.487174	-0.207450	0.788423
	O4576	O	0.380365	-0.290370	0.876893
	O4577	O	0.423698	-0.040098	0.815458
	O4578	O	0.377676	-0.041037	0.807442
	O4579	O	0.487124	-0.039103	0.788195
	O4580	O	0.442881	-0.040435	0.814499
	O4581	O	0.489823	-0.288985	0.858124
	O4582	O	0.370913	-0.124365	0.881724
	O4583	O	0.496659	-0.373398	0.783839
	C4584	C	0.471404	-0.284253	0.854121
	C4585	C	0.476124	-0.373965	0.854480
	C4586	C	0.471458	-0.464233	0.854007
	C4587	C	0.462312	-0.464639	0.853447
	C4588	C	0.457602	-0.374763	0.853180
	C4589	C	0.462271	-0.284660	0.853558
	C4590	C	0.447733	-0.374605	0.850987
	C4591	C	0.485986	-0.373453	0.856857
	C4592	C	0.420979	-0.374365	0.853380
	C4593	C	0.411550	-0.374215	0.859589
	C4594	C	0.406941	-0.284427	0.861612
	C4595	C	0.398061	-0.284225	0.865902
	C4596	C	0.393512	-0.374141	0.868319
	C4597	C	0.398105	-0.463974	0.866253
	C4598	C	0.406993	-0.464024	0.861993
	C4599	C	0.384116	-0.374319	0.874563
	C4600	C	0.419807	-0.124124	0.814350
	C4601	C	0.409956	-0.123882	0.811926
	C4602	C	0.405238	-0.034072	0.811723
	C4603	C	0.396103	-0.034239	0.811194
	C4604	C	0.391431	-0.124394	0.810802
	C4605	C	0.396135	-0.214118	0.810989
	C4606	C	0.405270	-0.213789	0.811527
	C4607	C	0.381569	-0.125159	0.808359
	C4608	C	0.446599	-0.124272	0.812027
	C4609	C	0.456039	-0.124004	0.805884
	C4610	C	0.460632	-0.213638	0.803729
	C4611	C	0.469508	-0.213394	0.799430
	C4612	C	0.474033	-0.123364	0.797012
	C4613	C	0.469434	-0.033782	0.799188
	C4614	C	0.460556	-0.033976	0.803511
	C4615	C	0.483467	-0.123373	0.790831
	H4616	H	0.472948	-0.283455	0.798007
	H4617	H	0.457248	-0.283918	0.805557
	H4618	H	0.474906	-0.214121	0.854252
	H4619	H	0.458745	-0.214557	0.853325
	H4620	H	0.432740	-0.374256	0.804560
	H4621	H	0.434954	-0.124536	0.860863
	H4622	H	0.370388	-0.124611	0.867135
	H4623	H	0.497215	-0.372872	0.798421
	H4624	H	0.408816	-0.283953	0.811717
	H4625	H	0.392629	-0.284220	0.810760
	H4626	H	0.394635	-0.213935	0.867383
	H4627	H	0.410354	-0.214525	0.859730
	H4628	H	0.392543	0.035603	0.811103
	H4629	H	0.408755	0.036063	0.812071
	H4630	H	0.410410	-0.534303	0.860438
	H4631	H	0.394673	-0.534062	0.868023
	H4632	H	0.458794	-0.534784	0.853246
	H4633	H	0.475011	-0.534210	0.854051
	H4634	H	0.457125	0.036113	0.805134
	H4635	H	0.472857	0.036426	0.797633
	Al4636	Al	0.433808	0.000514	0.832763
	Al4637	Al	0.433747	0.250384	0.832641
	Al4638	Al	0.367534	0.249706	0.790279
	Al4639	Al	0.367545	-0.000186	0.790232
	O4640	O	0.443904	0.041406	0.849879
	O4641	O	0.433373	0.125321	0.819098
	O4642	O	0.434159	0.375181	0.846303
	O4643	O	0.489916	0.042664	0.857576
	O4644	O	0.424695	0.041860	0.850977
	O4645	O	0.380381	0.041586	0.877067
	O4646	O	0.424563	0.210105	0.850660
	O4647	O	0.423660	0.291732	0.815431
	O4648	O	0.377610	0.290848	0.807419
	O4649	O	0.443870	0.209528	0.849836
	O4650	O	0.442908	0.291400	0.814483
	O4651	O	0.487200	0.292383	0.788686
	O4652	O	0.380341	0.209842	0.876768
	O4653	O	0.423636	0.459874	0.815575
	O4654	O	0.377631	0.458971	0.807376
	O4655	O	0.487103	0.460460	0.788467
	O4656	O	0.442873	0.459427	0.814483
	O4657	O	0.489848	0.210935	0.858078
	O4658	O	0.370871	0.375527	0.881560
	O4659	O	0.496661	0.126098	0.783842
	C4660	C	0.471415	0.216371	0.854285
	C4661	C	0.476155	0.126481	0.854431
	C4662	C	0.471493	0.036487	0.854003
	C4663	C	0.462363	0.036174	0.853430
	C4664	C	0.457627	0.125935	0.853292
	C4665	C	0.462278	0.216184	0.853700
	C4666	C	0.447775	0.125474	0.850936
	C4667	C	0.486005	0.126665	0.856879
	C4668	C	0.420928	0.125809	0.853284
	C4669	C	0.411477	0.125503	0.859365
	C4670	C	0.406904	0.215467	0.861485
	C4671	C	0.398040	0.215514	0.865783
	C4672	C	0.393498	0.125645	0.868204
	C4673	C	0.398070	0.035723	0.866149
	C4674	C	0.406940	0.035754	0.861841
	C4675	C	0.384054	0.125769	0.874370
	C4676	C	0.419766	0.375774	0.814472
	C4677	C	0.409907	0.375624	0.812135
	C4678	C	0.405190	0.465462	0.811915
	C4679	C	0.396045	0.465256	0.811350
	C4680	C	0.391370	0.375196	0.810902
	C4681	C	0.396092	0.285455	0.811031
	C4682	C	0.405236	0.285483	0.811591
	C4683	C	0.381519	0.374858	0.808440
	C4684	C	0.446562	0.375355	0.811908
	C4685	C	0.455975	0.375352	0.805675
	C4686	C	0.460575	0.285541	0.803571
	C4687	C	0.469453	0.286067	0.799333
	C4688	C	0.473995	0.376088	0.796998
	C4689	C	0.469394	0.465778	0.799120
	C4690	C	0.460519	0.465420	0.803398
	C4691	C	0.483455	0.376294	0.790922
	H4692	H	0.472930	0.216135	0.797938
	H4693	H	0.457216	0.215115	0.805467
	H4694	H	0.474923	0.286591	0.854538
	H4695	H	0.458703	0.286022	0.853454
	H4696	H	0.432779	0.125083	0.804611
	H4697	H	0.434710	0.375085	0.860921
	H4698	H	0.370302	0.376151	0.866962
	H4699	H	0.497375	0.125913	0.798396
	H4700	H	0.408746	0.215441	0.811766
	H4701	H	0.392590	0.215257	0.810784
	H4702	H	0.394589	0.285552	0.867263
	H4703	H	0.410305	0.285468	0.859720
	H4704	H	0.392519	0.535316	0.811325
	H4705	H	0.408705	0.535739	0.812268
	H4706	H	0.410382	-0.034440	0.860317
	H4707	H	0.394664	-0.034535	0.867839
	H4708	H	0.458873	-0.034111	0.853005
	H4709	H	0.475057	-0.033436	0.853963
	H4710	H	0.457091	0.535407	0.805127
	H4711	H	0.472797	0.535881	0.797567
	Al4712	Al	0.437494	-0.499237	0.937497
	Al4713	Al	0.437517	-0.249329	0.937661
	Al4714	Al	0.371289	-0.249590	0.895303
	Al4715	Al	0.371293	-0.499471	0.895154
	O4716	O	0.447666	-0.458997	0.954425
	O4717	O	0.437056	-0.373928	0.923944
	O4718	O	0.437923	-0.124481	0.951340
	O4719	O	0.493653	-0.457739	0.962800
	O4720	O	0.428386	-0.458210	0.955821
	O4721	O	0.384135	-0.458946	0.981979
	O4722	O	0.428366	-0.289991	0.955723
	O4723	O	0.427440	-0.208122	0.920414
	O4724	O	0.381406	-0.208992	0.912444
	O4725	O	0.447605	-0.290707	0.954872
	O4726	O	0.446639	-0.208715	0.919556
	O4727	O	0.490888	-0.207189	0.893195
	O4728	O	0.384113	-0.290789	0.981885
	O4729	O	0.427417	-0.039772	0.920680
	O4730	O	0.381414	-0.040534	0.912375
	O4731	O	0.490788	-0.038969	0.892906
	O4732	O	0.446597	-0.040451	0.919347
	O4733	O	0.493616	-0.289649	0.962892
	O4734	O	0.374525	-0.124732	0.986501
	O4735	O	0.500430	-0.373849	0.888706
	C4736	C	0.475152	-0.284184	0.959154
	C4737	C	0.479884	-0.373958	0.959389
	C4738	C	0.475237	-0.464099	0.958784
	C4739	C	0.466100	-0.464518	0.958181
	C4740	C	0.461360	-0.374684	0.958105
	C4741	C	0.466013	-0.284696	0.958561
	C4742	C	0.451509	-0.374829	0.955670
	C4743	C	0.489750	-0.373766	0.961717
	C4744	C	0.424682	-0.374270	0.958218
	C4745	C	0.415247	-0.374069	0.964324
	C4746	C	0.410645	-0.284365	0.966501
	C4747	C	0.401772	-0.284712	0.970788
	C4748	C	0.397239	-0.374705	0.973210
	C4749	C	0.401863	-0.464411	0.971106
	C4750	C	0.410740	-0.464062	0.966795
	C4751	C	0.387827	-0.374965	0.979459
	C4752	C	0.423540	-0.123839	0.919495
	C4753	C	0.413703	-0.124009	0.917014
	C4754	C	0.408970	-0.034154	0.916748
	C4755	C	0.399833	-0.034505	0.916163
	C4756	C	0.395165	-0.124724	0.915771
	C4757	C	0.399898	-0.214545	0.915793
	C4758	C	0.409036	-0.214225	0.916342
	C4759	C	0.385291	-0.124873	0.913430
	C4760	C	0.450323	-0.124497	0.916952
	C4761	C	0.459736	-0.124403	0.910734
	C4762	C	0.464341	-0.214265	0.908599
	C4763	C	0.473219	-0.213846	0.904265
	C4764	C	0.477751	-0.123793	0.901889
	C4765	C	0.473132	-0.034076	0.903950
	C4766	C	0.464260	-0.034534	0.908302
	C4767	C	0.487138	-0.123269	0.895584
	H4768	H	0.476673	-0.283888	0.902707
	H4769	H	0.460976	-0.284561	0.910442
	H4770	H	0.478634	-0.213884	0.959528
	H4771	H	0.462455	-0.214757	0.958565
	H4772	H	0.436364	-0.373452	0.909361
	H4773	H	0.438459	-0.124538	0.965902
	H4774	H	0.373833	-0.124645	0.971982
	H4775	H	0.501191	-0.374273	0.903270
	H4776	H	0.412585	-0.284263	0.916395
	H4777	H	0.396386	-0.284689	0.915496
	H4778	H	0.398284	-0.214763	0.972259
	H4779	H	0.414021	-0.213876	0.964688
	H4780	H	0.396295	0.035439	0.916113
	H4781	H	0.412498	0.036251	0.917116
	H4782	H	0.414189	-0.534056	0.965213
	H4783	H	0.398474	-0.534820	0.972865
	H4784	H	0.462604	-0.534791	0.957932
	H4785	H	0.478803	-0.534063	0.958917
	H4786	H	0.460797	0.035458	0.909943
	H4787	H	0.476514	0.036347	0.902170
	Al4788	Al	0.437527	0.000585	0.937797
	Al4789	Al	0.437513	0.250532	0.937625
	Al4790	Al	0.371255	0.250651	0.895227
	Al4791	Al	0.371280	0.000416	0.895271
	O4792	O	0.447726	0.041071	0.954635
	O4793	O	0.437059	0.125387	0.924169
	O4794	O	0.437897	0.376028	0.951163
	O4795	O	0.493683	0.042415	0.962601
	O4796	O	0.428398	0.042050	0.956050
	O4797	O	0.384095	0.040951	0.981913
	O4798	O	0.428386	0.210052	0.955956
	O4799	O	0.427387	0.291843	0.920517
	O4800	O	0.381395	0.291345	0.912330
	O4801	O	0.447628	0.209455	0.954888
	O4802	O	0.446637	0.290752	0.919375
	O4803	O	0.490921	0.292130	0.893281
	O4804	O	0.384061	0.209188	0.981819
	O4805	O	0.427342	0.459973	0.920515
	O4806	O	0.381371	0.459705	0.912381
	O4807	O	0.490908	0.460340	0.893259
	O4808	O	0.446576	0.458805	0.919295
	O4809	O	0.493640	0.210651	0.962850
	O4810	O	0.374499	0.375515	0.986578
	O4811	O	0.500418	0.125945	0.888605
	C4812	C	0.475204	0.216209	0.959126
	C4813	C	0.479940	0.126395	0.959430
	C4814	C	0.475269	0.036311	0.958794
	C4815	C	0.466130	0.036205	0.958283
	C4816	C	0.461402	0.125975	0.958354
	C4817	C	0.466071	0.216038	0.958627
	C4818	C	0.451552	0.125398	0.955896
	C4819	C	0.489772	0.126534	0.961752
	C4820	C	0.424709	0.125981	0.958497
	C4821	C	0.415246	0.125822	0.964499
	C4822	C	0.410640	0.215424	0.966608
	C4823	C	0.401738	0.215104	0.970806
	C4824	C	0.397191	0.125144	0.973157
	C4825	C	0.401789	0.035362	0.970983
	C4826	C	0.410697	0.035720	0.966794
	C4827	C	0.387779	0.125111	0.979413
	C4828	C	0.423488	0.375858	0.919371
	C4829	C	0.413637	0.375511	0.917017
	C4830	C	0.408944	0.465578	0.916870
	C4831	C	0.399808	0.465541	0.916388
	C4832	C	0.395114	0.375615	0.915786
	C4833	C	0.399809	0.285551	0.916023
	C4834	C	0.408955	0.285426	0.916529
	C4835	C	0.385274	0.375549	0.913409
	C4836	C	0.450316	0.374956	0.916875
	C4837	C	0.459749	0.375399	0.910703
	C4838	C	0.464355	0.285905	0.908444
	C4839	C	0.473244	0.286129	0.904125
	C4840	C	0.477786	0.376114	0.901957
	C4841	C	0.473173	0.465687	0.904103
	C4842	C	0.464281	0.465406	0.908369
	C4843	C	0.487210	0.376226	0.895757
	H4844	H	0.476673	0.215886	0.902492
	H4845	H	0.460979	0.215546	0.910175
	H4846	H	0.478742	0.286337	0.959341
	H4847	H	0.462526	0.285881	0.958480
	H4848	H	0.436279	0.125082	0.909604
	H4849	H	0.438368	0.375904	0.965692
	H4850	H	0.373701	0.375244	0.972042
	H4851	H	0.500977	0.125800	0.903125
	H4852	H	0.412488	0.215357	0.916668
	H4853	H	0.396296	0.215347	0.915793
	H4854	H	0.398280	0.285303	0.972216
	H4855	H	0.414024	0.286086	0.964872
	H4856	H	0.396297	0.535627	0.916417
	H4857	H	0.412479	0.535554	0.917248
	H4858	H	0.414142	-0.034480	0.965217
	H4859	H	0.398402	-0.034830	0.972551
	H4860	H	0.462602	-0.033850	0.957843
	H4861	H	0.478808	-0.033767	0.958720
	H4862	H	0.460863	0.535591	0.910005
	H4863	H	0.476560	0.535938	0.902422
	Al4864	Al	0.569973	-0.499035	0.022480
	Al4865	Al	0.569958	-0.249131	0.022294
	Al4866	Al	0.503747	-0.248955	-0.020065
	Al4867	Al	0.503761	-0.498916	-0.020043
	O4868	O	0.580094	-0.458064	0.039578
	O4869	O	0.569518	-0.374287	0.008798
	O4870	O	0.570309	-0.123991	0.035916
	O4871	O	0.626034	-0.458027	0.048780
	O4872	O	0.560789	-0.458377	0.040518
	O4873	O	0.516594	-0.458432	0.066796
	O4874	O	0.560798	-0.289989	0.040501
	O4875	O	0.559827	-0.208629	0.005156
	O4876	O	0.513879	-0.208512	-0.003009
	O4877	O	0.580064	-0.290034	0.039445
	O4878	O	0.579042	-0.208156	0.004121
	O4879	O	0.623247	-0.208483	-0.022235
	O4880	O	0.516591	-0.290247	0.066740
	O4881	O	0.559863	-0.040391	0.005064
	O4882	O	0.513862	-0.040003	-0.002873
	O4883	O	0.623303	-0.040358	-0.022073
	O4884	O	0.579092	-0.039855	0.004217
	O4885	O	0.626050	-0.289423	0.048835
	O4886	O	0.507066	-0.124688	0.071247
	O4887	O	0.632802	-0.374225	-0.026787
	C4888	C	0.607623	-0.283784	0.044943
	C4889	C	0.612346	-0.373576	0.045196
	C4890	C	0.607674	-0.463644	0.044616
	C4891	C	0.598546	-0.463679	0.043814
	C4892	C	0.593816	-0.373951	0.043438
	C4893	C	0.598504	-0.283934	0.044113
	C4894	C	0.583957	-0.373809	0.040735
	C4895	C	0.622176	-0.373586	0.047648
	C4896	C	0.557095	-0.374067	0.043036
	C4897	C	0.547703	-0.374254	0.049270
	C4898	C	0.543112	-0.284328	0.051405
	C4899	C	0.534250	-0.284456	0.055709
	C4900	C	0.529689	-0.374420	0.058085
	C4901	C	0.534276	-0.464161	0.055891
	C4902	C	0.543139	-0.464201	0.051563
	C4903	C	0.520286	-0.374326	0.064251
	C4904	C	0.555963	-0.124366	0.004112
	C4905	C	0.546112	-0.124269	0.001770
	C4906	C	0.541412	-0.034331	0.001426
	C4907	C	0.532275	-0.034183	0.000844
	C4908	C	0.527593	-0.124107	0.000546
	C4909	C	0.532291	-0.214030	0.000749
	C4910	C	0.541424	-0.214158	0.001368
	C4911	C	0.517741	-0.124055	-0.001865
	C4912	C	0.582752	-0.124205	0.001672
	C4913	C	0.592200	-0.124157	-0.004361
	C4914	C	0.596750	-0.214044	-0.006707
	C4915	C	0.605621	-0.213921	-0.011024
	C4916	C	0.610179	-0.124184	-0.013280
	C4917	C	0.605616	-0.034368	-0.011038
	C4918	C	0.596752	-0.034360	-0.006740
	C4919	C	0.619602	-0.124183	-0.019511
	H4920	H	0.609053	-0.283935	-0.012626
	H4921	H	0.593333	-0.284155	-0.005142
	H4922	H	0.611122	-0.214025	0.045355
	H4923	H	0.594941	-0.214263	0.043952
	H4924	H	0.568789	-0.374561	-0.005700
	H4925	H	0.570647	-0.124306	0.050460
	H4926	H	0.506486	-0.124458	0.056691
	H4927	H	0.633332	-0.374578	-0.012285
	H4928	H	0.544950	-0.284207	0.001526
	H4929	H	0.528768	-0.283919	0.000463
	H4930	H	0.530827	-0.214676	0.057415
	H4931	H	0.546554	-0.214343	0.049782
	H4932	H	0.528734	0.035895	0.000650
	H4933	H	0.544937	0.035709	0.001637
	H4934	H	0.546578	-0.534117	0.050065
	H4935	H	0.530856	-0.534029	0.057690
	H4936	H	0.594999	-0.533469	0.043392
	H4937	H	0.611211	-0.533683	0.044800
	H4938	H	0.593294	0.035544	-0.005213
	H4939	H	0.609024	0.035668	-0.012642
	Al4940	Al	0.569976	0.000826	0.022322
	Al4941	Al	0.569994	0.250718	0.022402
	Al4942	Al	0.503756	0.251237	-0.020076
	Al4943	Al	0.503767	0.001037	-0.020027
	O4944	O	0.580056	0.041670	0.039413
	O4945	O	0.569515	0.125898	0.008796
	O4946	O	0.570358	0.375816	0.036042
	O4947	O	0.626050	0.041261	0.048875
	O4948	O	0.560767	0.041713	0.040398
	O4949	O	0.516571	0.041592	0.066727
	O4950	O	0.560824	0.209892	0.040618
	O4951	O	0.559894	0.291732	0.005149
	O4952	O	0.513895	0.291756	-0.002991
	O4953	O	0.580026	0.209854	0.039797
	O4954	O	0.579092	0.291503	0.004316
	O4955	O	0.623295	0.291955	-0.022316
	O4956	O	0.516606	0.209850	0.066935
	O4957	O	0.559878	0.459969	0.005150
	O4958	O	0.513880	0.460009	-0.002853
	O4959	O	0.623273	0.460421	-0.022304
	O4960	O	0.579118	0.459898	0.004412
	O4961	O	0.626041	0.209664	0.048641
	O4962	O	0.507091	0.375511	0.071280
	O4963	O	0.632849	0.126092	-0.026578
	C4964	C	0.607602	0.215541	0.044831
	C4965	C	0.612302	0.125604	0.045109
	C4966	C	0.607621	0.035867	0.044617
	C4967	C	0.598480	0.035711	0.043790
	C4968	C	0.593782	0.125615	0.043398
	C4969	C	0.598461	0.215391	0.044048
	C4970	C	0.583931	0.125771	0.040715
	C4971	C	0.622169	0.125438	0.047671
	C4972	C	0.557110	0.125910	0.043032
	C4973	C	0.547693	0.126202	0.049232
	C4974	C	0.543089	0.215916	0.051390
	C4975	C	0.534227	0.215624	0.055724
	C4976	C	0.529693	0.125702	0.058153
	C4977	C	0.534310	0.035931	0.056106
	C4978	C	0.543170	0.036300	0.051773
	C4979	C	0.520290	0.125686	0.064311
	C4980	C	0.556013	0.375859	0.004108
	C4981	C	0.546142	0.375854	0.001757
	C4982	C	0.541448	0.465794	0.001439
	C4983	C	0.532309	0.465795	0.000857
	C4984	C	0.527623	0.375887	0.000542
	C4985	C	0.532314	0.285906	0.000892
	C4986	C	0.541458	0.285911	0.001439
	C4987	C	0.517773	0.375808	-0.001792
	C4988	C	0.582797	0.375726	0.001914
	C4989	C	0.592222	0.375507	-0.004358
	C4990	C	0.596817	0.285851	-0.006473
	C4991	C	0.605689	0.286205	-0.010847
	C4992	C	0.610202	0.376189	-0.013346
	C4993	C	0.605611	0.465824	-0.011161
	C4994	C	0.596750	0.465438	-0.006774
	C4995	C	0.619601	0.376114	-0.019742
	H4996	H	0.609098	0.216144	-0.012463
	H4997	H	0.593412	0.215683	-0.004766
	H4998	H	0.611135	0.285738	0.045367
	H4999	H	0.594921	0.285318	0.043933
	H5000	H	0.568782	0.126194	-0.005665
	H5001	H	0.570707	0.375523	0.050668
	H5002	H	0.506525	0.375528	0.056755
	H5003	H	0.633312	0.126407	-0.012072
	H5004	H	0.544976	0.215703	0.001523
	H5005	H	0.528794	0.215885	0.000632
	H5006	H	0.530768	0.285526	0.057316
	H5007	H	0.546478	0.285967	0.049593
	H5008	H	0.528805	0.536021	0.000636
	H5009	H	0.544988	0.535887	0.001602
	H5010	H	0.546635	-0.033684	0.050327
	H5011	H	0.530929	-0.034224	0.057945
	H5012	H	0.594998	-0.034345	0.043394
	H5013	H	0.611141	-0.034236	0.044909
	H5014	H	0.593308	0.535547	-0.005324
	H5015	H	0.608989	0.535824	-0.013084
	Al5016	Al	0.573188	-0.498665	0.130143
	Al5017	Al	0.573206	-0.249381	0.130117
	Al5018	Al	0.507475	-0.249327	0.084928
	Al5019	Al	0.507468	-0.499833	0.084948
	O5020	O	0.581990	-0.458240	0.151030
	O5021	O	0.573109	-0.374169	0.116723
	O5022	O	0.573025	-0.124070	0.143449
	O5023	O	0.617017	-0.458146	0.227204
	O5024	O	0.563749	-0.458230	0.147216
	O5025	O	0.520168	-0.458478	0.176088
	O5026	O	0.563694	-0.289730	0.147097
	O5027	O	0.563519	-0.208124	0.111173
	O5028	O	0.517542	-0.208724	0.102220
	O5029	O	0.581973	-0.290405	0.151118
	O5030	O	0.582633	-0.208629	0.113487
	O5031	O	0.626257	-0.208025	0.084785
	O5032	O	0.520139	-0.289914	0.175974
	O5033	O	0.563442	-0.039538	0.111381
	O5034	O	0.517513	-0.040348	0.102106
	O5035	O	0.626225	-0.039573	0.084645
	O5036	O	0.582604	-0.040132	0.113327
	O5037	O	0.616899	-0.290075	0.227362
	O5038	O	0.510671	-0.123813	0.179397
	O5039	O	0.635498	-0.374437	0.080997
	C5040	C	0.603026	-0.285517	0.196515
	C5041	C	0.606619	-0.374246	0.204232
	C5042	C	0.603163	-0.463140	0.196228
	C5043	C	0.596216	-0.463230	0.181056
	C5044	C	0.592553	-0.374375	0.173524
	C5045	C	0.596079	-0.285426	0.181331
	C5046	C	0.584998	-0.374302	0.157301
	C5047	C	0.614042	-0.374208	0.220866
	C5048	C	0.560100	-0.374093	0.149861
	C5049	C	0.550803	-0.374210	0.156631
	C5050	C	0.546324	-0.284489	0.159360
	C5051	C	0.537577	-0.284375	0.164549
	C5052	C	0.533114	-0.374104	0.167039
	C5053	C	0.537600	-0.463714	0.164487
	C5054	C	0.546343	-0.463823	0.159351
	C5055	C	0.523816	-0.374082	0.173519
	C5056	C	0.559624	-0.124002	0.110131
	C5057	C	0.549764	-0.124315	0.107689
	C5058	C	0.545081	-0.034229	0.107289
	C5059	C	0.535952	-0.034296	0.106494
	C5060	C	0.531261	-0.124325	0.106066
	C5061	C	0.535961	-0.214315	0.106540
	C5062	C	0.545090	-0.214471	0.107301
	C5063	C	0.521396	-0.124397	0.103333
	C5064	C	0.586287	-0.124366	0.111017
	C5065	C	0.595617	-0.123930	0.104700
	C5066	C	0.600097	-0.213519	0.102097
	C5067	C	0.608847	-0.213352	0.096924
	C5068	C	0.613318	-0.123636	0.094211
	C5069	C	0.608836	-0.034021	0.096890
	C5070	C	0.600085	-0.034046	0.102103
	C5071	C	0.622602	-0.123708	0.087387
	H5072	H	0.612219	-0.283071	0.094707
	H5073	H	0.596747	-0.283126	0.104164
	H5074	H	0.605669	-0.216660	0.202484
	H5075	H	0.593373	-0.216533	0.175484
	H5076	H	0.572603	-0.373678	0.102124
	H5077	H	0.572628	-0.123656	0.157986
	H5078	H	0.510131	-0.123785	0.164874
	H5079	H	0.635182	-0.374434	0.095559
	H5080	H	0.548636	-0.284125	0.107682
	H5081	H	0.532440	-0.284227	0.106322
	H5082	H	0.534168	-0.215106	0.166706
	H5083	H	0.549728	-0.214952	0.157329
	H5084	H	0.532399	0.035670	0.106249
	H5085	H	0.548594	0.035664	0.107635
	H5086	H	0.549722	-0.533435	0.157305
	H5087	H	0.534240	-0.533322	0.166632
	H5088	H	0.593630	-0.532152	0.174967
	H5089	H	0.605947	-0.532095	0.201955
	H5090	H	0.596673	0.035235	0.104137
	H5091	H	0.612192	0.035899	0.094647
	Al5092	Al	0.573176	0.001396	0.129926
	Al5093	Al	0.573187	0.250485	0.129946
	Al5094	Al	0.507479	0.250569	0.084923
	Al5095	Al	0.507425	0.000556	0.084778
	O5096	O	0.582037	0.041825	0.150782
	O5097	O	0.573140	0.125839	0.116533
	O5098	O	0.572994	0.375853	0.143521
	O5099	O	0.616912	0.041247	0.227302
	O5100	O	0.563725	0.041511	0.146940
	O5101	O	0.520161	0.041587	0.176276
	O5102	O	0.563670	0.210281	0.146912
	O5103	O	0.563529	0.292402	0.111120
	O5104	O	0.517583	0.291140	0.102228
	O5105	O	0.581911	0.209754	0.151103
	O5106	O	0.582693	0.291820	0.113599
	O5107	O	0.626177	0.291465	0.084382
	O5108	O	0.520176	0.210098	0.176025
	O5109	O	0.563466	0.460419	0.111333
	O5110	O	0.517522	0.459508	0.102252
	O5111	O	0.626208	0.459988	0.084481
	O5112	O	0.582657	0.460144	0.113634
	O5113	O	0.616929	0.209380	0.227263
	O5114	O	0.510676	0.375851	0.179210
	O5115	O	0.635474	0.126382	0.081185
	C5116	C	0.603022	0.214301	0.196485
	C5117	C	0.606608	0.125451	0.204193
	C5118	C	0.603070	0.036670	0.196297
	C5119	C	0.596124	0.036788	0.181056
	C5120	C	0.592540	0.125558	0.173408
	C5121	C	0.596075	0.214309	0.181250
	C5122	C	0.584979	0.125852	0.157140
	C5123	C	0.613994	0.125392	0.220880
	C5124	C	0.560080	0.125886	0.149663
	C5125	C	0.550828	0.125688	0.156630
	C5126	C	0.546334	0.215536	0.159253
	C5127	C	0.537596	0.215452	0.164573
	C5128	C	0.533152	0.125524	0.167265
	C5129	C	0.537642	0.035607	0.164750
	C5130	C	0.546391	0.035708	0.159440
	C5131	C	0.523830	0.125651	0.173703
	C5132	C	0.559605	0.376230	0.110122
	C5133	C	0.549765	0.375877	0.107768
	C5134	C	0.545060	0.465811	0.107482
	C5135	C	0.535922	0.465741	0.106647
	C5136	C	0.531253	0.375770	0.106049
	C5137	C	0.535947	0.285831	0.106461
	C5138	C	0.545098	0.285940	0.107312
	C5139	C	0.521410	0.375408	0.103360
	C5140	C	0.586324	0.376046	0.111192
	C5141	C	0.595631	0.376068	0.104712
	C5142	C	0.600113	0.286383	0.102258
	C5143	C	0.608850	0.286300	0.096938
	C5144	C	0.613296	0.375964	0.094034
	C5145	C	0.608840	0.465600	0.096758
	C5146	C	0.600103	0.465630	0.102066
	C5147	C	0.622561	0.375615	0.087149
	H5148	H	0.612223	0.216668	0.094954
	H5149	H	0.596756	0.217112	0.104472
	H5150	H	0.605636	0.283581	0.202543
	H5151	H	0.593369	0.283274	0.175426
	H5152	H	0.572834	0.125829	0.101974
	H5153	H	0.572610	0.375693	0.157988
	H5154	H	0.510338	0.375867	0.164682
	H5155	H	0.634923	0.126561	0.095596
	H5156	H	0.548613	0.215882	0.107677
	H5157	H	0.532417	0.215769	0.106229
	H5158	H	0.534204	0.285117	0.166614
	H5159	H	0.549660	0.285373	0.157076
	H5160	H	0.532392	0.535884	0.106542
	H5161	H	0.548578	0.535888	0.107980
	H5162	H	0.549783	-0.033830	0.157362
	H5163	H	0.534264	-0.033860	0.166878
	H5164	H	0.593479	-0.031731	0.175082
	H5165	H	0.605718	-0.032284	0.202177
	H5166	H	0.596724	0.535008	0.104117
	H5167	H	0.612225	0.535115	0.094592
	Al5168	Al	0.562488	-0.499438	0.312813
	Al5169	Al	0.562480	-0.249396	0.312772
	Al5170	Al	0.510727	-0.248452	0.192639
	Al5171	Al	0.510727	-0.499441	0.192695
	O5172	O	0.570588	-0.458839	0.335599
	O5173	O	0.563226	-0.374699	0.299748
	O5174	O	0.561774	-0.124534	0.326020
	O5175	O	0.605483	-0.458763	0.412031
	O5176	O	0.552573	-0.458570	0.327601
	O5177	O	0.509962	-0.458685	0.360904
	O5178	O	0.552524	-0.290091	0.327418
	O5179	O	0.554461	-0.208586	0.289941
	O5180	O	0.519539	-0.208167	0.213774
	O5181	O	0.570509	-0.290741	0.335604
	O5182	O	0.572441	-0.209154	0.298105
	O5183	O	0.615069	-0.209305	0.264968
	O5184	O	0.509959	-0.290041	0.360822
	O5185	O	0.554467	-0.040306	0.290026
	O5186	O	0.519501	-0.040074	0.213840
	O5187	O	0.615036	-0.040596	0.264880
	O5188	O	0.572426	-0.040640	0.298076
	O5189	O	0.605440	-0.290633	0.412084
	O5190	O	0.500718	-0.124337	0.362438
	O5191	O	0.624230	-0.374737	0.263238
	C5192	C	0.591317	-0.285777	0.381874
	C5193	C	0.594912	-0.374804	0.389562
	C5194	C	0.591360	-0.463555	0.381729
	C5195	C	0.584443	-0.463576	0.366476
	C5196	C	0.580874	-0.374528	0.358707
	C5197	C	0.584400	-0.285762	0.366630
	C5198	C	0.573495	-0.374690	0.341968
	C5199	C	0.602467	-0.374954	0.405797
	C5200	C	0.548981	-0.374378	0.330245
	C5201	C	0.539856	-0.374446	0.337598
	C5202	C	0.535502	-0.285043	0.340783
	C5203	C	0.526948	-0.285139	0.347283
	C5204	C	0.522640	-0.374600	0.350580
	C5205	C	0.527002	-0.463934	0.347381
	C5206	C	0.535558	-0.463826	0.340916
	C5207	C	0.513518	-0.374369	0.358001
	C5208	C	0.551559	-0.124470	0.283563
	C5209	C	0.544156	-0.124131	0.266911
	C5210	C	0.540609	-0.035008	0.259126
	C5211	C	0.533687	-0.034872	0.243902
	C5212	C	0.530099	-0.124009	0.236216
	C5213	C	0.533630	-0.213036	0.244044
	C5214	C	0.540554	-0.213174	0.259251
	C5215	C	0.522523	-0.124243	0.220043
	C5216	C	0.576009	-0.124835	0.295307
	C5217	C	0.585128	-0.124876	0.287877
	C5218	C	0.589500	-0.214314	0.284824
	C5219	C	0.598055	-0.214336	0.278369
	C5220	C	0.602359	-0.124970	0.274974
	C5221	C	0.598013	-0.035539	0.278110
	C5222	C	0.589459	-0.035403	0.284598
	C5223	C	0.611472	-0.124744	0.267631
	H5224	H	0.601425	-0.282917	0.275855
	H5225	H	0.586185	-0.283428	0.287451
	H5226	H	0.594007	-0.216923	0.387748
	H5227	H	0.581722	-0.216913	0.360682
	H5228	H	0.564052	-0.374955	0.285447
	H5229	H	0.561145	-0.124568	0.340352
	H5230	H	0.501430	-0.124673	0.348112
	H5231	H	0.623235	-0.374658	0.277496
	H5232	H	0.543231	-0.282070	0.265220
	H5233	H	0.530888	-0.282031	0.238374
	H5234	H	0.523565	-0.216591	0.349841
	H5235	H	0.538829	-0.216360	0.338070
	H5236	H	0.530994	0.034105	0.237996
	H5237	H	0.543329	0.033998	0.264966
	H5238	H	0.538893	-0.532703	0.338375
	H5239	H	0.523700	-0.532790	0.349996
	H5240	H	0.581824	-0.532571	0.360432
	H5241	H	0.594078	-0.532683	0.387547
	H5242	H	0.586094	0.033594	0.287205
	H5243	H	0.601340	0.033259	0.275447
	Al5244	Al	0.562506	0.000746	0.312832
	Al5245	Al	0.562527	0.250581	0.312843
	Al5246	Al	0.510719	0.251326	0.192632
	Al5247	Al	0.510739	0.000598	0.192917
	O5248	O	0.570564	0.041419	0.335690
	O5249	O	0.563238	0.125592	0.299765
	O5250	O	0.561751	0.375452	0.326015
	O5251	O	0.605483	0.041306	0.412126
	O5252	O	0.552556	0.041327	0.327434
	O5253	O	0.509966	0.041471	0.360770
	O5254	O	0.552564	0.209639	0.327618
	O5255	O	0.554467	0.291285	0.289946
	O5256	O	0.519544	0.291913	0.213559
	O5257	O	0.570567	0.209520	0.335703
	O5258	O	0.572487	0.291103	0.298287
	O5259	O	0.615055	0.291380	0.264808
	O5260	O	0.509962	0.209754	0.360696
	O5261	O	0.554433	0.459411	0.290007
	O5262	O	0.519515	0.459796	0.213746
	O5263	O	0.614999	0.459803	0.264751
	O5264	O	0.572440	0.459774	0.298163
	O5265	O	0.605465	0.209353	0.412135
	O5266	O	0.500776	0.375320	0.362331
	O5267	O	0.624210	0.125100	0.263207
	C5268	C	0.591384	0.214298	0.381843
	C5269	C	0.594949	0.125377	0.389609
	C5270	C	0.591366	0.036432	0.381899
	C5271	C	0.584447	0.036426	0.366621
	C5272	C	0.580901	0.125349	0.358802
	C5273	C	0.584463	0.214311	0.366584
	C5274	C	0.573478	0.125383	0.342156
	C5275	C	0.602462	0.125416	0.405912
	C5276	C	0.549005	0.125627	0.330393
	C5277	C	0.539881	0.125645	0.337734
	C5278	C	0.535514	0.214901	0.340798
	C5279	C	0.526976	0.214441	0.347302
	C5280	C	0.522665	0.125300	0.350667
	C5281	C	0.527005	0.036111	0.347497
	C5282	C	0.535561	0.036471	0.341062
	C5283	C	0.513540	0.125534	0.357991
	C5284	C	0.551523	0.375373	0.283619
	C5285	C	0.544112	0.375329	0.266988
	C5286	C	0.540515	0.464352	0.259296
	C5287	C	0.533587	0.464428	0.244066
	C5288	C	0.530058	0.375384	0.236222
	C5289	C	0.533672	0.286401	0.243831
	C5290	C	0.540608	0.286361	0.259064
	C5291	C	0.522511	0.375597	0.219946
	C5292	C	0.576026	0.375588	0.295449
	C5293	C	0.585136	0.375617	0.288052
	C5294	C	0.589481	0.286136	0.284759
	C5295	C	0.598043	0.286126	0.278258
	C5296	C	0.602360	0.375671	0.275081
	C5297	C	0.597990	0.465026	0.278210
	C5298	C	0.589445	0.465062	0.284714
	C5299	C	0.611468	0.375581	0.267591
	H5300	H	0.601367	0.217379	0.275532
	H5301	H	0.586127	0.217404	0.287373
	H5302	H	0.594034	0.283365	0.387852
	H5303	H	0.581773	0.283498	0.360680
	H5304	H	0.564007	0.125593	0.285488
	H5305	H	0.560990	0.375862	0.340366
	H5306	H	0.501581	0.375069	0.348059
	H5307	H	0.623508	0.125354	0.277557
	H5308	H	0.543309	0.217335	0.264872
	H5309	H	0.531002	0.217414	0.237894
	H5310	H	0.523641	0.283497	0.349862
	H5311	H	0.538819	0.283566	0.338107
	H5312	H	0.530862	0.533367	0.238263
	H5313	H	0.543141	0.533468	0.265302
	H5314	H	0.538914	-0.032179	0.338547
	H5315	H	0.523670	-0.032886	0.350227
	H5316	H	0.581731	-0.032528	0.360828
	H5317	H	0.594003	-0.032541	0.387939
	H5318	H	0.586107	0.534319	0.287265
	H5319	H	0.601290	0.533921	0.275466
	Al5320	Al	0.551823	-0.500160	0.495433
	Al5321	Al	0.551822	-0.249644	0.495331
	Al5322	Al	0.500029	-0.249615	0.375570
	Al5323	Al	0.500015	-0.499646	0.375508
	O5324	O	0.561540	-0.458909	0.514091
	O5325	O	0.552030	-0.374722	0.481850
	O5326	O	0.551837	-0.125107	0.508812
	O5327	O	0.607474	-0.458396	0.522906
	O5328	O	0.542309	-0.459100	0.511913
	O5329	O	0.498768	-0.459005	0.540587
	O5330	O	0.542295	-0.290384	0.511687
	O5331	O	0.543066	-0.208901	0.474367
	O5332	O	0.508067	-0.208742	0.398327
	O5333	O	0.561526	-0.290594	0.514163
	O5334	O	0.561355	-0.209013	0.478387
	O5335	O	0.604869	-0.208811	0.449571
	O5336	O	0.498761	-0.290446	0.540664
	O5337	O	0.543064	-0.040917	0.474345
	O5338	O	0.508050	-0.040469	0.398405
	O5339	O	0.604837	-0.040506	0.449387
	O5340	O	0.561306	-0.040699	0.478310
	O5341	O	0.607497	-0.290092	0.523002
	O5342	O	0.489465	-0.125543	0.544325
	O5343	O	0.614366	-0.375053	0.446379
	C5344	C	0.589062	-0.284750	0.518918
	C5345	C	0.593762	-0.374431	0.519193
	C5346	C	0.589083	-0.464401	0.518764
	C5347	C	0.579945	-0.464471	0.518050
	C5348	C	0.575260	-0.374569	0.517776
	C5349	C	0.579927	-0.284747	0.518224
	C5350	C	0.565415	-0.374687	0.515303
	C5351	C	0.603599	-0.374229	0.521850
	C5352	C	0.538652	-0.374804	0.514278
	C5353	C	0.529319	-0.374803	0.520621
	C5354	C	0.524840	-0.284915	0.523139
	C5355	C	0.516100	-0.284814	0.528344
	C5356	C	0.511658	-0.374774	0.531146
	C5357	C	0.516120	-0.464873	0.528402
	C5358	C	0.524852	-0.464841	0.523223
	C5359	C	0.502375	-0.374777	0.537949
	C5360	C	0.540008	-0.124817	0.468244
	C5361	C	0.532439	-0.124609	0.452079
	C5362	C	0.528851	-0.035690	0.444360
	C5363	C	0.521887	-0.035659	0.429237
	C5364	C	0.518332	-0.124537	0.421461
	C5365	C	0.521908	-0.213521	0.429220
	C5366	C	0.528864	-0.213386	0.444355
	C5367	C	0.510942	-0.124712	0.404821
	C5368	C	0.564934	-0.125008	0.475568
	C5369	C	0.574222	-0.124644	0.468740
	C5370	C	0.578721	-0.214416	0.466204
	C5371	C	0.587470	-0.214286	0.460995
	C5372	C	0.591892	-0.124403	0.458320
	C5373	C	0.587396	-0.034651	0.460695
	C5374	C	0.578646	-0.034880	0.465872
	C5375	C	0.601187	-0.124551	0.451903
	H5376	H	0.590882	-0.283997	0.458947
	H5377	H	0.575337	-0.283923	0.468330
	H5378	H	0.592567	-0.214632	0.519037
	H5379	H	0.576400	-0.214560	0.517867
	H5380	H	0.552422	-0.374748	0.467370
	H5381	H	0.552093	-0.125069	0.523398
	H5382	H	0.489835	-0.125955	0.529883
	H5383	H	0.614966	-0.374449	0.460871
	H5384	H	0.531534	-0.282206	0.450286
	H5385	H	0.519214	-0.282289	0.423316
	H5386	H	0.512712	-0.215232	0.530466
	H5387	H	0.528253	-0.215466	0.521064
	H5388	H	0.519171	0.033363	0.423370
	H5389	H	0.531502	0.032890	0.450400
	H5390	H	0.528257	-0.534364	0.521176
	H5391	H	0.512759	-0.534622	0.530614
	H5392	H	0.576414	-0.534422	0.517592
	H5393	H	0.592613	-0.534492	0.518847
	H5394	H	0.575241	0.034739	0.467731
	H5395	H	0.590741	0.034759	0.458434
	Al5396	Al	0.551835	-0.000490	0.495415
	Al5397	Al	0.551782	0.250663	0.495480
	Al5398	Al	0.500016	0.250468	0.375367
	Al5399	Al	0.500036	0.000334	0.375578
	O5400	O	0.561523	0.040917	0.514113
	O5401	O	0.552020	0.125166	0.481988
	O5402	O	0.551802	0.375437	0.508931
	O5403	O	0.607474	0.041264	0.522899
	O5404	O	0.542415	0.040650	0.512008
	O5405	O	0.498756	0.040537	0.540489
	O5406	O	0.542320	0.208983	0.512002
	O5407	O	0.543000	0.291237	0.474504
	O5408	O	0.508048	0.291265	0.398259
	O5409	O	0.561509	0.209313	0.514127
	O5410	O	0.561267	0.290746	0.478484
	O5411	O	0.604843	0.290820	0.449515
	O5412	O	0.498763	0.208864	0.540472
	O5413	O	0.543000	0.459121	0.474504
	O5414	O	0.508032	0.459359	0.398362
	O5415	O	0.604831	0.459305	0.449550
	O5416	O	0.561274	0.459152	0.478356
	O5417	O	0.607481	0.209399	0.522984
	O5418	O	0.489509	0.374777	0.544149
	O5419	O	0.614393	0.124914	0.446422
	C5420	C	0.589055	0.215066	0.518883
	C5421	C	0.593761	0.125273	0.519284
	C5422	C	0.589091	0.035509	0.518679
	C5423	C	0.579957	0.035405	0.517866
	C5424	C	0.575245	0.125109	0.517632
	C5425	C	0.579914	0.214926	0.518084
	C5426	C	0.565404	0.125189	0.515234
	C5427	C	0.603603	0.125401	0.521813
	C5428	C	0.538700	0.124530	0.514424
	C5429	C	0.529381	0.124342	0.520683
	C5430	C	0.524901	0.214054	0.523338
	C5431	C	0.516162	0.213720	0.528547
	C5432	C	0.511688	0.124142	0.531121
	C5433	C	0.516154	0.034416	0.528281
	C5434	C	0.524902	0.034683	0.523118
	C5435	C	0.502387	0.124558	0.537831
	C5436	C	0.540009	0.375150	0.468268
	C5437	C	0.532434	0.375157	0.452078
	C5438	C	0.528799	0.464092	0.444482
	C5439	C	0.521870	0.464259	0.429334
	C5440	C	0.518368	0.375270	0.421377
	C5441	C	0.521984	0.286402	0.429065
	C5442	C	0.528906	0.286307	0.444200
	C5443	C	0.510981	0.375175	0.404727
	C5444	C	0.564892	0.374870	0.475724
	C5445	C	0.574179	0.374763	0.468928
	C5446	C	0.578673	0.284857	0.466212
	C5447	C	0.587411	0.284747	0.460996
	C5448	C	0.591873	0.374800	0.458430
	C5449	C	0.587369	0.464603	0.460969
	C5450	C	0.578632	0.464699	0.466190
	C5451	C	0.601191	0.375028	0.452047
	H5452	H	0.590824	0.215324	0.458985
	H5453	H	0.575304	0.215070	0.468328
	H5454	H	0.592583	0.284849	0.519164
	H5455	H	0.576390	0.284995	0.517860
	H5456	H	0.552498	0.125971	0.467440
	H5457	H	0.552164	0.375528	0.523481
	H5458	H	0.489807	0.375079	0.529576
	H5459	H	0.614789	0.124889	0.460944
	H5460	H	0.531643	0.217580	0.449967
	H5461	H	0.519392	0.217537	0.422891
	H5462	H	0.512774	0.283352	0.530682
	H5463	H	0.528295	0.283722	0.521380
	H5464	H	0.519162	0.533335	0.423374
	H5465	H	0.531478	0.532825	0.450489
	H5466	H	0.528297	-0.034701	0.520938
	H5467	H	0.512745	-0.035434	0.530261
	H5468	H	0.576448	-0.034656	0.517386
	H5469	H	0.592618	-0.034287	0.518810
	H5470	H	0.575220	0.534285	0.468235
	H5471	H	0.590772	0.534040	0.458931
	Al5472	Al	0.555071	-0.499160	0.602788
	Al5473	Al	0.555069	-0.249068	0.602797
	Al5474	Al	0.489303	-0.250468	0.557833
	Al5475	Al	0.489309	-0.499562	0.557645
	O5476	O	0.565205	-0.458721	0.619769
	O5477	O	0.554638	-0.374084	0.589130
	O5478	O	0.555435	-0.123960	0.616321
	O5479	O	0.611194	-0.457766	0.628124
	O5480	O	0.545953	-0.458251	0.621032
	O5481	O	0.501742	-0.458544	0.647082
	O5482	O	0.545947	-0.290015	0.620881
	O5483	O	0.544995	-0.208322	0.585356
	O5484	O	0.499054	-0.209286	0.576394
	O5485	O	0.565176	-0.290444	0.620049
	O5486	O	0.564200	-0.208358	0.584659
	O5487	O	0.608414	-0.208802	0.558407
	O5488	O	0.501737	-0.290417	0.647135
	O5489	O	0.544975	-0.039807	0.585420
	O5490	O	0.498990	-0.040895	0.576353
	O5491	O	0.608445	-0.040416	0.558475
	O5492	O	0.564154	-0.040121	0.584528
	O5493	O	0.611177	-0.289392	0.628023
	O5494	O	0.492155	-0.124632	0.651651
	O5495	O	0.617972	-0.374745	0.553766
	C5496	C	0.592714	-0.283800	0.624299
	C5497	C	0.597431	-0.373534	0.624653
	C5498	C	0.592777	-0.463815	0.624199
	C5499	C	0.583641	-0.464046	0.623593
	C5500	C	0.578929	-0.374264	0.623288
	C5501	C	0.583582	-0.284035	0.623669
	C5502	C	0.569059	-0.374544	0.620939
	C5503	C	0.607310	-0.373577	0.626964
	C5504	C	0.542260	-0.374057	0.623363
	C5505	C	0.532832	-0.374097	0.629515
	C5506	C	0.528234	-0.284206	0.631610
	C5507	C	0.519345	-0.284069	0.635952
	C5508	C	0.514823	-0.374128	0.638303
	C5509	C	0.519412	-0.463979	0.636143
	C5510	C	0.528294	-0.463891	0.631833
	C5511	C	0.505427	-0.374362	0.644613
	C5512	C	0.541119	-0.124045	0.584194
	C5513	C	0.531285	-0.124132	0.581504
	C5514	C	0.526574	-0.034273	0.581102
	C5515	C	0.517424	-0.034264	0.580310
	C5516	C	0.512752	-0.124365	0.579948
	C5517	C	0.517468	-0.214240	0.580338
	C5518	C	0.526613	-0.214170	0.581133
	C5519	C	0.502905	-0.124825	0.577485
	C5520	C	0.567876	-0.124202	0.582066
	C5521	C	0.577316	-0.124080	0.575877
	C5522	C	0.581858	-0.214119	0.573509
	C5523	C	0.590734	-0.214251	0.569174
	C5524	C	0.595321	-0.124542	0.567077
	C5525	C	0.590777	-0.034473	0.569388
	C5526	C	0.581900	-0.034463	0.573703
	C5527	C	0.604736	-0.124655	0.560835
	H5528	H	0.594154	-0.284328	0.567433
	H5529	H	0.578464	-0.284355	0.575100
	H5530	H	0.596222	-0.213456	0.624527
	H5531	H	0.580047	-0.214213	0.623486
	H5532	H	0.553986	-0.374389	0.574566
	H5533	H	0.556190	-0.123924	0.630875
	H5534	H	0.491531	-0.124624	0.637083
	H5535	H	0.618636	-0.375046	0.568374
	H5536	H	0.530154	-0.284168	0.581583
	H5537	H	0.513951	-0.284499	0.580161
	H5538	H	0.515915	-0.213942	0.637592
	H5539	H	0.531613	-0.214062	0.629873
	H5540	H	0.513886	0.035645	0.580126
	H5541	H	0.530082	0.035753	0.581466
	H5542	H	0.531724	-0.534174	0.630329
	H5543	H	0.516040	-0.534508	0.637959
	H5544	H	0.580096	-0.534156	0.623359
	H5545	H	0.596312	-0.533748	0.624322
	H5546	H	0.578490	0.035635	0.575491
	H5547	H	0.594191	0.035669	0.567824
	Al5548	Al	0.555049	0.001055	0.602735
	Al5549	Al	0.555032	0.250881	0.602754
	Al5550	Al	0.489307	0.249252	0.557611
	Al5551	Al	0.489299	0.000234	0.557610
	O5552	O	0.565192	0.041159	0.619884
	O5553	O	0.554649	0.126026	0.589125
	O5554	O	0.555489	0.375720	0.616405
	O5555	O	0.611163	0.041621	0.627826
	O5556	O	0.545880	0.041713	0.620781
	O5557	O	0.501728	0.040926	0.647191
	O5558	O	0.545877	0.209906	0.620734
	O5559	O	0.545027	0.292281	0.585312
	O5560	O	0.499018	0.290785	0.576332
	O5561	O	0.565142	0.209418	0.620162
	O5562	O	0.564211	0.291513	0.584643
	O5563	O	0.608416	0.291048	0.558240
	O5564	O	0.501657	0.209398	0.647007
	O5565	O	0.544963	0.460361	0.585582
	O5566	O	0.499014	0.459261	0.576360
	O5567	O	0.608438	0.459245	0.558338
	O5568	O	0.564197	0.459713	0.584617
	O5569	O	0.611192	0.209950	0.627824
	O5570	O	0.492133	0.375680	0.651585
	O5571	O	0.617962	0.125231	0.553729
	C5572	C	0.592696	0.215853	0.624356
	C5573	C	0.597420	0.125979	0.624576
	C5574	C	0.592745	0.035990	0.624198
	C5575	C	0.583617	0.035627	0.623707
	C5576	C	0.578899	0.125525	0.623460
	C5577	C	0.583560	0.215566	0.623841
	C5578	C	0.569035	0.125365	0.621104
	C5579	C	0.607274	0.126023	0.626800
	C5580	C	0.542193	0.125842	0.623259
	C5581	C	0.532774	0.125897	0.629440
	C5582	C	0.528177	0.215678	0.631622
	C5583	C	0.519325	0.215463	0.635983
	C5584	C	0.514789	0.125513	0.638350
	C5585	C	0.519384	0.035599	0.636158
	C5586	C	0.528236	0.035806	0.631815
	C5587	C	0.505372	0.125275	0.644587
	C5588	C	0.541107	0.376089	0.584249
	C5589	C	0.531254	0.375678	0.581650
	C5590	C	0.526532	0.465390	0.581167
	C5591	C	0.517398	0.464983	0.580394
	C5592	C	0.512745	0.375155	0.579994
	C5593	C	0.517464	0.285473	0.580349
	C5594	C	0.526603	0.285704	0.581106
	C5595	C	0.502892	0.375061	0.577496
	C5596	C	0.567880	0.375615	0.582106
	C5597	C	0.577315	0.375619	0.575904
	C5598	C	0.581872	0.285539	0.573547
	C5599	C	0.590741	0.285605	0.569224
	C5600	C	0.595328	0.375443	0.567070
	C5601	C	0.590759	0.465470	0.569328
	C5602	C	0.581881	0.465657	0.573620
	C5603	C	0.604751	0.375322	0.560806
	H5604	H	0.594124	0.215377	0.567486
	H5605	H	0.578406	0.215447	0.575179
	H5606	H	0.596192	0.286058	0.624529
	H5607	H	0.579983	0.285377	0.623671
	H5608	H	0.554203	0.126166	0.574626
	H5609	H	0.556253	0.375576	0.631019
	H5610	H	0.491514	0.376305	0.637087
	H5611	H	0.618458	0.125606	0.568327
	H5612	H	0.530164	0.215899	0.581457
	H5613	H	0.513950	0.215533	0.580173
	H5614	H	0.515877	0.285580	0.637615
	H5615	H	0.531594	0.285829	0.629960
	H5616	H	0.513863	0.534961	0.580206
	H5617	H	0.530028	0.535612	0.581552
	H5618	H	0.531698	-0.033995	0.630335
	H5619	H	0.515981	-0.034546	0.637970
	H5620	H	0.580114	-0.034692	0.623485
	H5621	H	0.596289	-0.033930	0.624237
	H5622	H	0.578492	0.535771	0.575303
	H5623	H	0.594206	0.535270	0.567636
	Al5624	Al	0.558762	-0.498398	0.707615
	Al5625	Al	0.558742	-0.248786	0.707558
	Al5626	Al	0.492553	-0.249830	0.665305
	Al5627	Al	0.492590	-0.499404	0.665151
	O5628	O	0.568890	-0.457943	0.724705
	O5629	O	0.558392	-0.373627	0.693951
	O5630	O	0.559211	-0.123976	0.721147
	O5631	O	0.614910	-0.457570	0.732638
	O5632	O	0.549666	-0.457513	0.725846
	O5633	O	0.505418	-0.458250	0.752202
	O5634	O	0.549579	-0.289452	0.725652
	O5635	O	0.548664	-0.207484	0.690449
	O5636	O	0.502634	-0.208858	0.682626
	O5637	O	0.568871	-0.289602	0.724780
	O5638	O	0.567891	-0.207775	0.689404
	O5639	O	0.612137	-0.207804	0.663263
	O5640	O	0.505302	-0.290255	0.751685
	O5641	O	0.548644	-0.039307	0.690417
	O5642	O	0.502628	-0.040605	0.682483
	O5643	O	0.612172	-0.039627	0.663369
	O5644	O	0.567865	-0.039595	0.689350
	O5645	O	0.614868	-0.289243	0.732786
	O5646	O	0.495828	-0.123499	0.756482
	O5647	O	0.621688	-0.373936	0.658774
	C5648	C	0.596434	-0.283839	0.729115
	C5649	C	0.601144	-0.373828	0.729412
	C5650	C	0.596447	-0.463723	0.729168
	C5651	C	0.587308	-0.463984	0.728595
	C5652	C	0.582614	-0.373922	0.728233
	C5653	C	0.587298	-0.283897	0.728574
	C5654	C	0.572764	-0.373756	0.725771
	C5655	C	0.611012	-0.373437	0.731712
	C5656	C	0.545945	-0.373595	0.728327
	C5657	C	0.536509	-0.373751	0.734473
	C5658	C	0.531935	-0.283955	0.736714
	C5659	C	0.523055	-0.284129	0.740980
	C5660	C	0.518500	-0.373989	0.743322
	C5661	C	0.523095	-0.463786	0.741186
	C5662	C	0.531978	-0.463723	0.736877
	C5663	C	0.509068	-0.374131	0.749460
	C5664	C	0.544771	-0.123453	0.689357
	C5665	C	0.534906	-0.123644	0.686999
	C5666	C	0.530175	-0.033994	0.686766
	C5667	C	0.521033	-0.034521	0.686268
	C5668	C	0.516379	-0.124627	0.685851
	C5669	C	0.521103	-0.214352	0.686008
	C5670	C	0.530248	-0.213857	0.686520
	C5671	C	0.506517	-0.124757	0.683545
	C5672	C	0.571590	-0.123705	0.686966
	C5673	C	0.580996	-0.123621	0.680755
	C5674	C	0.585590	-0.213461	0.678557
	C5675	C	0.594475	-0.213444	0.674310
	C5676	C	0.599039	-0.123565	0.672068
	C5677	C	0.594446	-0.033725	0.674196
	C5678	C	0.585559	-0.033850	0.678455
	C5679	C	0.608437	-0.123776	0.665802
	H5680	H	0.597886	-0.283605	0.672627
	H5681	H	0.582181	-0.283763	0.680226
	H5682	H	0.599955	-0.213777	0.729281
	H5683	H	0.583734	-0.213795	0.728339
	H5684	H	0.557998	-0.373805	0.679395
	H5685	H	0.559858	-0.124071	0.735701
	H5686	H	0.495192	-0.122983	0.741885
	H5687	H	0.622179	-0.373675	0.673344
	H5688	H	0.533811	-0.283983	0.686647
	H5689	H	0.517604	-0.284798	0.685808
	H5690	H	0.519626	-0.214010	0.742385
	H5691	H	0.535331	-0.213606	0.734962
	H5692	H	0.517482	0.035443	0.686268
	H5693	H	0.533664	0.036405	0.687080
	H5694	H	0.535417	-0.533853	0.735305
	H5695	H	0.519679	-0.533994	0.742835
	H5696	H	0.583800	-0.534119	0.728369
	H5697	H	0.599997	-0.533692	0.729387
	H5698	H	0.582131	0.036452	0.679993
	H5699	H	0.597851	0.036165	0.672407
	Al5700	Al	0.558756	0.001463	0.707599
	Al5701	Al	0.558741	0.251389	0.707620
	Al5702	Al	0.492552	0.250349	0.665284
	Al5703	Al	0.492551	0.000314	0.665254
	O5704	O	0.568899	0.042215	0.724765
	O5705	O	0.558360	0.126236	0.694049
	O5706	O	0.559186	0.376381	0.721156
	O5707	O	0.614907	0.042383	0.732775
	O5708	O	0.549686	0.042284	0.726023
	O5709	O	0.505434	0.041916	0.752194
	O5710	O	0.549604	0.210486	0.725712
	O5711	O	0.548636	0.292468	0.690481
	O5712	O	0.502654	0.291358	0.682403
	O5713	O	0.568853	0.210714	0.724870
	O5714	O	0.567894	0.292000	0.689472
	O5715	O	0.612135	0.292302	0.663125
	O5716	O	0.505330	0.210077	0.751991
	O5717	O	0.548655	0.460755	0.690469
	O5718	O	0.502628	0.459659	0.682362
	O5719	O	0.612210	0.460310	0.663508
	O5720	O	0.567925	0.460200	0.689472
	O5721	O	0.614914	0.210629	0.732784
	O5722	O	0.495870	0.376310	0.756611
	O5723	O	0.621688	0.126444	0.658621
	C5724	C	0.596459	0.216648	0.729089
	C5725	C	0.601148	0.126603	0.729488
	C5726	C	0.596449	0.036661	0.729145
	C5727	C	0.587309	0.036698	0.728630
	C5728	C	0.582616	0.126694	0.728379
	C5729	C	0.587313	0.216607	0.728578
	C5730	C	0.572750	0.126575	0.725922
	C5731	C	0.611021	0.126516	0.731720
	C5732	C	0.545958	0.126233	0.728408
	C5733	C	0.536530	0.126162	0.734581
	C5734	C	0.531916	0.216026	0.736498
	C5735	C	0.523026	0.216173	0.740797
	C5736	C	0.518501	0.126332	0.743341
	C5737	C	0.523091	0.036274	0.741238
	C5738	C	0.531981	0.036207	0.737005
	C5739	C	0.509079	0.126235	0.749583
	C5740	C	0.544750	0.376689	0.689463
	C5741	C	0.534891	0.376671	0.687072
	C5742	C	0.530170	0.466497	0.686940
	C5743	C	0.521022	0.465957	0.686368
	C5744	C	0.516358	0.375705	0.685757
	C5745	C	0.521074	0.285933	0.686070
	C5746	C	0.530212	0.286498	0.686632
	C5747	C	0.506526	0.375538	0.683453
	C5748	C	0.571599	0.376038	0.686964
	C5749	C	0.581035	0.376027	0.680760
	C5750	C	0.585610	0.286093	0.678526
	C5751	C	0.594489	0.286297	0.674195
	C5752	C	0.599052	0.376231	0.671916
	C5753	C	0.594465	0.466134	0.674164
	C5754	C	0.585587	0.465992	0.678434
	C5755	C	0.608488	0.376346	0.665828
	H5756	H	0.597926	0.216143	0.672510
	H5757	H	0.582207	0.215704	0.680155
	H5758	H	0.600011	0.286821	0.729330
	H5759	H	0.583808	0.286790	0.728467
	H5760	H	0.557730	0.126374	0.679502
	H5761	H	0.559737	0.376640	0.735756
	H5762	H	0.495343	0.376546	0.742085
	H5763	H	0.622359	0.126435	0.673160
	H5764	H	0.533757	0.216599	0.686726
	H5765	H	0.517580	0.215644	0.685794
	H5766	H	0.519588	0.286067	0.742277
	H5767	H	0.535312	0.286238	0.734699
	H5768	H	0.517472	0.536017	0.686342
	H5769	H	0.533671	0.536681	0.687282
	H5770	H	0.535418	-0.034026	0.735545
	H5771	H	0.519694	-0.034043	0.743054
	H5772	H	0.583788	-0.033259	0.728475
	H5773	H	0.599962	-0.033487	0.729377
	H5774	H	0.582140	0.535893	0.679991
	H5775	H	0.597849	0.536607	0.672498
	Al5776	Al	0.562507	-0.498031	0.812565
	Al5777	Al	0.562494	-0.248362	0.812523
	Al5778	Al	0.496257	-0.248559	0.770038
	Al5779	Al	0.496264	-0.498670	0.770331
	O5780	O	0.572616	-0.457592	0.829752
	O5781	O	0.562142	-0.373249	0.798957
	O5782	O	0.562931	-0.123604	0.826120
	O5783	O	0.618614	-0.457740	0.837443
	O5784	O	0.553402	-0.457580	0.830797
	O5785	O	0.509146	-0.458234	0.857038
	O5786	O	0.553368	-0.289310	0.830642
	O5787	O	0.552419	-0.206721	0.795284
	O5788	O	0.506433	-0.208061	0.786967
	O5789	O	0.572617	-0.289087	0.829869
	O5790	O	0.571592	-0.207340	0.794166
	O5791	O	0.615870	-0.207388	0.768194
	O5792	O	0.509069	-0.289971	0.856738
	O5793	O	0.552333	-0.038400	0.795550
	O5794	O	0.506363	-0.039707	0.787508
	O5795	O	0.615873	-0.039149	0.768155
	O5796	O	0.571583	-0.039410	0.794210
	O5797	O	0.618592	-0.289478	0.837719
	O5798	O	0.499617	-0.124038	0.861347
	O5799	O	0.625375	-0.373611	0.763531
	C5800	C	0.600166	-0.283546	0.833891
	C5801	C	0.604848	-0.373690	0.834193
	C5802	C	0.600180	-0.463690	0.833955
	C5803	C	0.591043	-0.463614	0.833497
	C5804	C	0.586353	-0.373553	0.833220
	C5805	C	0.591029	-0.283520	0.833453
	C5806	C	0.576491	-0.373329	0.830765
	C5807	C	0.614704	-0.373513	0.836524
	C5808	C	0.549696	-0.373390	0.833231
	C5809	C	0.540254	-0.373625	0.839324
	C5810	C	0.535628	-0.283739	0.841376
	C5811	C	0.526763	-0.284028	0.845654
	C5812	C	0.522230	-0.373934	0.848168
	C5813	C	0.526846	-0.463854	0.846078
	C5814	C	0.535707	-0.463559	0.841792
	C5815	C	0.512806	-0.374051	0.854365
	C5816	C	0.548488	-0.122866	0.794363
	C5817	C	0.538636	-0.123217	0.791916
	C5818	C	0.533914	-0.033403	0.791746
	C5819	C	0.524777	-0.033521	0.791188
	C5820	C	0.520118	-0.123661	0.790751
	C5821	C	0.524839	-0.213526	0.790843
	C5822	C	0.533978	-0.213340	0.791432
	C5823	C	0.510280	-0.123705	0.788268
	C5824	C	0.575288	-0.123476	0.791714
	C5825	C	0.584734	-0.123238	0.785642
	C5826	C	0.589330	-0.213217	0.783431
	C5827	C	0.598214	-0.213203	0.779212
	C5828	C	0.602775	-0.123159	0.776892
	C5829	C	0.598179	-0.033226	0.779069
	C5830	C	0.589294	-0.033276	0.783283
	C5831	C	0.612186	-0.123318	0.770717
	H5832	H	0.601674	-0.283277	0.777695
	H5833	H	0.585904	-0.283515	0.784969
	H5834	H	0.603693	-0.213524	0.834224
	H5835	H	0.587504	-0.213543	0.833349
	H5836	H	0.561724	-0.373393	0.784434
	H5837	H	0.563593	-0.123977	0.840586
	H5838	H	0.499126	-0.124123	0.846849
	H5839	H	0.625885	-0.374286	0.778178
	H5840	H	0.537538	-0.283389	0.791612
	H5841	H	0.521329	-0.283744	0.790597
	H5842	H	0.523296	-0.214063	0.847085
	H5843	H	0.539023	-0.213851	0.839623
	H5844	H	0.521242	0.036538	0.791215
	H5845	H	0.537406	0.036861	0.792183
	H5846	H	0.539185	-0.533490	0.840310
	H5847	H	0.523451	-0.534129	0.847830
	H5848	H	0.587530	-0.533800	0.833412
	H5849	H	0.603694	-0.533969	0.834322
	H5850	H	0.585855	0.036864	0.784778
	H5851	H	0.601567	0.036854	0.777398
	Al5852	Al	0.562478	0.001777	0.812619
	Al5853	Al	0.562504	0.251784	0.812425
	Al5854	Al	0.496218	0.251252	0.770246
	Al5855	Al	0.496272	0.001162	0.770209
	O5856	O	0.572636	0.042413	0.829634
	O5857	O	0.562111	0.126499	0.798936
	O5858	O	0.562915	0.376650	0.826092
	O5859	O	0.618625	0.042303	0.837742
	O5860	O	0.553422	0.042836	0.830886
	O5861	O	0.509207	0.042034	0.857055
	O5862	O	0.553338	0.211188	0.830503
	O5863	O	0.552393	0.292474	0.795266
	O5864	O	0.506386	0.291779	0.787357
	O5865	O	0.572613	0.210703	0.829674
	O5866	O	0.571645	0.292824	0.794388
	O5867	O	0.615958	0.292627	0.768332
	O5868	O	0.509100	0.210122	0.856703
	O5869	O	0.552391	0.460802	0.795480
	O5870	O	0.506402	0.460172	0.787461
	O5871	O	0.615913	0.460912	0.768203
	O5872	O	0.571671	0.460880	0.794345
	O5873	O	0.618641	0.210454	0.837664
	O5874	O	0.499583	0.376228	0.861463
	O5875	O	0.625458	0.126394	0.763532
	C5876	C	0.600203	0.216448	0.833877
	C5877	C	0.604887	0.126479	0.834279
	C5878	C	0.600198	0.036463	0.833844
	C5879	C	0.591055	0.036612	0.833293
	C5880	C	0.586374	0.126614	0.832963
	C5881	C	0.591070	0.216508	0.833319
	C5882	C	0.576510	0.126539	0.830678
	C5883	C	0.614760	0.126471	0.836564
	C5884	C	0.549677	0.126908	0.833212
	C5885	C	0.540286	0.126854	0.839402
	C5886	C	0.535676	0.216568	0.841397
	C5887	C	0.526787	0.216357	0.845656
	C5888	C	0.522275	0.126414	0.848163
	C5889	C	0.526877	0.036623	0.846123
	C5890	C	0.535767	0.036755	0.841841
	C5891	C	0.512852	0.126115	0.854469
	C5892	C	0.548510	0.376753	0.794285
	C5893	C	0.538660	0.376436	0.792035
	C5894	C	0.533935	0.466233	0.791815
	C5895	C	0.524800	0.466029	0.791248
	C5896	C	0.520137	0.375891	0.790820
	C5897	C	0.524861	0.286108	0.790948
	C5898	C	0.533991	0.286322	0.791499
	C5899	C	0.510279	0.375896	0.788438
	C5900	C	0.575374	0.376909	0.791915
	C5901	C	0.584796	0.376799	0.785726
	C5902	C	0.589372	0.287093	0.783558
	C5903	C	0.598252	0.287027	0.779264
	C5904	C	0.602804	0.376839	0.776925
	C5905	C	0.598235	0.466625	0.779094
	C5906	C	0.589343	0.466620	0.783409
	C5907	C	0.612240	0.376709	0.770788
	H5908	H	0.601654	0.216550	0.777509
	H5909	H	0.585943	0.216804	0.785057
	H5910	H	0.603727	0.286415	0.834090
	H5911	H	0.587550	0.286725	0.833272
	H5912	H	0.561447	0.125407	0.784233
	H5913	H	0.563564	0.376961	0.840614
	H5914	H	0.498961	0.376385	0.846851
	H5915	H	0.626087	0.126947	0.777985
	H5916	H	0.537528	0.216404	0.791732
	H5917	H	0.521338	0.216085	0.790834
	H5918	H	0.523333	0.286434	0.847085
	H5919	H	0.539060	0.286837	0.839427
	H5920	H	0.521261	0.536075	0.791385
	H5921	H	0.537457	0.536315	0.792306
	H5922	H	0.539195	-0.033587	0.840324
	H5923	H	0.523488	-0.033639	0.847908
	H5924	H	0.587526	-0.033446	0.833192
	H5925	H	0.603721	-0.033355	0.834048
	H5926	H	0.585907	0.536983	0.784790
	H5927	H	0.601607	0.536743	0.777218
	Al5928	Al	0.566230	-0.498877	0.917385
	Al5929	Al	0.566207	-0.248947	0.917234
	Al5930	Al	0.499988	-0.248734	0.875078
	Al5931	Al	0.500016	-0.498766	0.875119
	O5932	O	0.576309	-0.458046	0.934720
	O5933	O	0.565829	-0.374128	0.903787
	O5934	O	0.566594	-0.123630	0.930854
	O5935	O	0.622362	-0.458304	0.942250
	O5936	O	0.557065	-0.457853	0.935499
	O5937	O	0.512845	-0.458519	0.961711
	O5938	O	0.557043	-0.289739	0.935344
	O5939	O	0.556118	-0.207835	0.900067
	O5940	O	0.510163	-0.208592	0.892167
	O5941	O	0.576311	-0.289788	0.934559
	O5942	O	0.575338	-0.207920	0.899124
	O5943	O	0.619574	-0.208364	0.873030
	O5944	O	0.512740	-0.290274	0.961414
	O5945	O	0.556119	-0.039226	0.900066
	O5946	O	0.510091	-0.040383	0.892165
	O5947	O	0.619637	-0.040011	0.873150
	O5948	O	0.575309	-0.039890	0.898963
	O5949	O	0.622356	-0.289976	0.942317
	O5950	O	0.503304	-0.124064	0.966361
	O5951	O	0.629145	-0.373892	0.868438
	C5952	C	0.603895	-0.284214	0.938807
	C5953	C	0.608605	-0.374054	0.939009
	C5954	C	0.603911	-0.464136	0.938754
	C5955	C	0.594781	-0.463886	0.938263
	C5956	C	0.590069	-0.373994	0.937919
	C5957	C	0.594765	-0.284072	0.938302
	C5958	C	0.580200	-0.374061	0.935524
	C5959	C	0.618470	-0.374069	0.941269
	C5960	C	0.553361	-0.373830	0.937988
	C5961	C	0.543952	-0.373763	0.944244
	C5962	C	0.539360	-0.284080	0.946517
	C5963	C	0.530481	-0.284152	0.950768
	C5964	C	0.525937	-0.374123	0.953008
	C5965	C	0.530528	-0.464037	0.950735
	C5966	C	0.539421	-0.463822	0.946465
	C5967	C	0.516516	-0.374333	0.959102
	C5968	C	0.552242	-0.123528	0.899053
	C5969	C	0.542389	-0.123526	0.896796
	C5970	C	0.537687	-0.033550	0.896689
	C5971	C	0.528549	-0.033827	0.896137
	C5972	C	0.523879	-0.124008	0.895608
	C5973	C	0.528586	-0.213911	0.895762
	C5974	C	0.537725	-0.213668	0.896308
	C5975	C	0.514017	-0.124231	0.893238
	C5976	C	0.579002	-0.123984	0.896559
	C5977	C	0.588450	-0.123763	0.890434
	C5978	C	0.593038	-0.213817	0.888213
	C5979	C	0.601934	-0.213670	0.883962
	C5980	C	0.606488	-0.123641	0.881691
	C5981	C	0.601921	-0.033696	0.883971
	C5982	C	0.593018	-0.033793	0.888207
	C5983	C	0.615918	-0.124069	0.875582
	H5984	H	0.605370	-0.283963	0.882404
	H5985	H	0.589628	-0.283942	0.889825
	H5986	H	0.607446	-0.214091	0.939124
	H5987	H	0.591256	-0.213815	0.938130
	H5988	H	0.565244	-0.374878	0.889262
	H5989	H	0.567259	-0.123368	0.945458
	H5990	H	0.502653	-0.123816	0.951761
	H5991	H	0.629803	-0.373933	0.882948
	H5992	H	0.541247	-0.283715	0.896290
	H5993	H	0.525086	-0.284015	0.895485
	H5994	H	0.527059	-0.213925	0.952432
	H5995	H	0.542768	-0.213797	0.944910
	H5996	H	0.525009	0.036129	0.896141
	H5997	H	0.541216	0.036765	0.896990
	H5998	H	0.542856	-0.533767	0.944863
	H5999	H	0.527110	-0.534007	0.952312
	H6000	H	0.591240	-0.533908	0.938139
	H6001	H	0.607412	-0.534134	0.938947
	H6002	H	0.589590	0.036308	0.889842
	H6003	H	0.605330	0.036689	0.882345
	Al6004	Al	0.566254	0.001446	0.917256
	Al6005	Al	0.566238	0.251452	0.917308
	Al6006	Al	0.500012	0.251465	0.875022
	Al6007	Al	0.499991	0.001268	0.874994
	O6008	O	0.576375	0.042074	0.934409
	O6009	O	0.565821	0.126593	0.903712
	O6010	O	0.566660	0.376235	0.931013
	O6011	O	0.622337	0.041553	0.942698
	O6012	O	0.557144	0.042771	0.935567
	O6013	O	0.512917	0.041668	0.961892
	O6014	O	0.557085	0.210563	0.935512
	O6015	O	0.556182	0.292323	0.900046
	O6016	O	0.510170	0.291421	0.892151
	O6017	O	0.576337	0.210577	0.934605
	O6018	O	0.575407	0.292224	0.899159
	O6019	O	0.619640	0.292239	0.873080
	O6020	O	0.512792	0.209766	0.961525
	O6021	O	0.556124	0.460483	0.900172
	O6022	O	0.510130	0.459752	0.892347
	O6023	O	0.619591	0.460415	0.872856
	O6024	O	0.575379	0.460479	0.899157
	O6025	O	0.622342	0.209834	0.942466
	O6026	O	0.503300	0.375818	0.966375
	O6027	O	0.629144	0.126216	0.868435
	C6028	C	0.603897	0.215997	0.938815
	C6029	C	0.608591	0.125929	0.939087
	C6030	C	0.603917	0.035907	0.938717
	C6031	C	0.594784	0.035979	0.938158
	C6032	C	0.590091	0.126187	0.937800
	C6033	C	0.594767	0.216145	0.938266
	C6034	C	0.580230	0.126435	0.935520
	C6035	C	0.618461	0.125648	0.941537
	C6036	C	0.553435	0.126647	0.938106
	C6037	C	0.544006	0.126433	0.944292
	C6038	C	0.539402	0.216224	0.946393
	C6039	C	0.530518	0.215968	0.950699
	C6040	C	0.525985	0.126113	0.953100
	C6041	C	0.530579	0.036384	0.950893
	C6042	C	0.539467	0.036602	0.946579
	C6043	C	0.516539	0.125899	0.959306
	C6044	C	0.552257	0.376337	0.899088
	C6045	C	0.542394	0.375946	0.896643
	C6046	C	0.537691	0.465948	0.896371
	C6047	C	0.528553	0.465821	0.895945
	C6048	C	0.523885	0.375763	0.895672
	C6049	C	0.528590	0.285819	0.895870
	C6050	C	0.537727	0.285905	0.896315
	C6051	C	0.514027	0.375674	0.893313
	C6052	C	0.579068	0.376425	0.896661
	C6053	C	0.588501	0.376292	0.890521
	C6054	C	0.593070	0.286246	0.888275
	C6055	C	0.601961	0.286192	0.884027
	C6056	C	0.606515	0.376224	0.881708
	C6057	C	0.601944	0.466240	0.883892
	C6058	C	0.593051	0.466301	0.888153
	C6059	C	0.615926	0.376300	0.875485
	H6060	H	0.605393	0.216085	0.882510
	H6061	H	0.589638	0.216073	0.889947
	H6062	H	0.607412	0.285958	0.939063
	H6063	H	0.591219	0.286222	0.938116
	H6064	H	0.565137	0.126465	0.889093
	H6065	H	0.567214	0.376221	0.945582
	H6066	H	0.502626	0.375895	0.951823
	H6067	H	0.629817	0.126811	0.882968
	H6068	H	0.541255	0.215809	0.896439
	H6069	H	0.525077	0.215601	0.895674
	H6070	H	0.527059	0.286170	0.952136
	H6071	H	0.542771	0.286639	0.944606
	H6072	H	0.525014	0.535884	0.895766
	H6073	H	0.541204	0.536119	0.896560
	H6074	H	0.542897	-0.033565	0.944910
	H6075	H	0.527209	-0.033985	0.952486
	H6076	H	0.591283	-0.034199	0.937964
	H6077	H	0.607474	-0.034141	0.938907
	H6078	H	0.589637	0.536585	0.889679
	H6079	H	0.605366	0.536396	0.882234
	Al6080	Al	0.698183	-0.499012	0.005037
	Al6081	Al	0.698173	-0.249806	0.004780
	Al6082	Al	0.632433	-0.249115	-0.040258
	Al6083	Al	0.632459	-0.499068	-0.040455
	O6084	O	0.707004	-0.458545	0.025973
	O6085	O	0.698114	-0.374573	-0.008566
	O6086	O	0.697960	-0.124187	0.018148
	O6087	O	0.741933	-0.458798	0.102136
	O6088	O	0.688718	-0.458288	0.022048
	O6089	O	0.645137	-0.458472	0.050905
	O6090	O	0.688639	-0.289743	0.021711
	O6091	O	0.688508	-0.208743	-0.014009
	O6092	O	0.642523	-0.208485	-0.022904
	O6093	O	0.707003	-0.290547	0.025851
	O6094	O	0.707612	-0.208678	-0.011877
	O6095	O	0.751225	-0.209472	-0.040447
	O6096	O	0.645148	-0.289883	0.050873
	O6097	O	0.688543	-0.040451	-0.014107
	O6098	O	0.642560	-0.039990	-0.022885
	O6099	O	0.751233	-0.041025	-0.040477
	O6100	O	0.707627	-0.040213	-0.011924
	O6101	O	0.741953	-0.290695	0.102230
	O6102	O	0.635696	-0.124070	0.054298
	O6103	O	0.760506	-0.375461	-0.044265
	C6104	C	0.728037	-0.285096	0.071343
	C6105	C	0.731635	-0.374289	0.079062
	C6106	C	0.728123	-0.463524	0.071176
	C6107	C	0.721194	-0.463744	0.055973
	C6108	C	0.717564	-0.374493	0.048353
	C6109	C	0.721100	-0.285219	0.056156
	C6110	C	0.710011	-0.374566	0.032135
	C6111	C	0.739030	-0.374643	0.095719
	C6112	C	0.685076	-0.374070	0.024594
	C6113	C	0.675793	-0.374393	0.031495
	C6114	C	0.671301	-0.284517	0.034089
	C6115	C	0.662567	-0.284507	0.039340
	C6116	C	0.658121	-0.374458	0.042057
	C6117	C	0.662624	-0.464405	0.039578
	C6118	C	0.671354	-0.464396	0.034325
	C6119	C	0.648805	-0.374176	0.048445
	C6120	C	0.684635	-0.124496	-0.015189
	C6121	C	0.674788	-0.124558	-0.017556
	C6122	C	0.670075	-0.034725	-0.017807
	C6123	C	0.660943	-0.034742	-0.018564
	C6124	C	0.656260	-0.124666	-0.019113
	C6125	C	0.660967	-0.214463	-0.018868
	C6126	C	0.670102	-0.214494	-0.018078
	C6127	C	0.646427	-0.124287	-0.021791
	C6128	C	0.711249	-0.124503	-0.014406
	C6129	C	0.720601	-0.124713	-0.020640
	C6130	C	0.725062	-0.214749	-0.023108
	C6131	C	0.733825	-0.214783	-0.028253
	C6132	C	0.738304	-0.124982	-0.031014
	C6133	C	0.733848	-0.034952	-0.028270
	C6134	C	0.725085	-0.034848	-0.023142
	C6135	C	0.747602	-0.125063	-0.037802
	H6136	H	0.737181	-0.284547	-0.030306
	H6137	H	0.721646	-0.284199	-0.021174
	H6138	H	0.730720	-0.215961	0.077301
	H6139	H	0.718385	-0.216438	0.050318
	H6140	H	0.697682	-0.374917	-0.023047
	H6141	H	0.697392	-0.124536	0.032600
	H6142	H	0.635229	-0.123925	0.039704
	H6143	H	0.760033	-0.375958	-0.029746
	H6144	H	0.673634	-0.284465	-0.017797
	H6145	H	0.657445	-0.284407	-0.019204
	H6146	H	0.659126	-0.215037	0.041231
	H6147	H	0.674678	-0.214947	0.031849
	H6148	H	0.657403	0.035304	-0.018740
	H6149	H	0.673597	0.035211	-0.017279
	H6150	H	0.674756	-0.534194	0.032285
	H6151	H	0.659243	-0.533998	0.041686
	H6152	H	0.718548	-0.533138	0.049997
	H6153	H	0.730848	-0.532829	0.076998
	H6154	H	0.721685	0.034775	-0.021209
	H6155	H	0.737244	0.034769	-0.030414
	Al6156	Al	0.698185	0.001174	0.004740
	Al6157	Al	0.698218	0.250100	0.004855
	Al6158	Al	0.632446	0.250955	-0.040367
	Al6159	Al	0.632458	0.000871	-0.040082
	O6160	O	0.706980	0.041039	0.025853
	O6161	O	0.698146	0.125742	-0.008652
	O6162	O	0.698019	0.375405	0.018476
	O6163	O	0.741901	0.040332	0.102253
	O6164	O	0.688720	0.041243	0.021809
	O6165	O	0.645220	0.041413	0.051247
	O6166	O	0.688681	0.209689	0.021875
	O6167	O	0.688512	0.291848	-0.013861
	O6168	O	0.642557	0.291926	-0.023138
	O6169	O	0.707061	0.209069	0.025727
	O6170	O	0.707631	0.291417	-0.011731
	O6171	O	0.751206	0.291057	-0.040739
	O6172	O	0.645153	0.209803	0.050879
	O6173	O	0.688512	0.460172	-0.013728
	O6174	O	0.642537	0.460105	-0.023158
	O6175	O	0.751204	0.459472	-0.040758
	O6176	O	0.707655	0.459899	-0.011512
	O6177	O	0.741922	0.208341	0.102168
	O6178	O	0.635659	0.375792	0.054090
	O6179	O	0.760479	0.125050	-0.044174
	C6180	C	0.728078	0.213292	0.071172
	C6181	C	0.731602	0.124378	0.079090
	C6182	C	0.728026	0.035539	0.071336
	C6183	C	0.721088	0.035778	0.056120
	C6184	C	0.717551	0.124698	0.048274
	C6185	C	0.721151	0.213371	0.055954
	C6186	C	0.709999	0.124894	0.032082
	C6187	C	0.738991	0.124318	0.095776
	C6188	C	0.685069	0.125502	0.024549
	C6189	C	0.675778	0.125368	0.031403
	C6190	C	0.671288	0.215151	0.034043
	C6191	C	0.662552	0.215330	0.039274
	C6192	C	0.658114	0.125510	0.041948
	C6193	C	0.662596	0.035548	0.039475
	C6194	C	0.671337	0.035482	0.034183
	C6195	C	0.648827	0.125456	0.048560
	C6196	C	0.684639	0.376051	-0.014928
	C6197	C	0.674786	0.375884	-0.017494
	C6198	C	0.670090	0.465722	-0.017678
	C6199	C	0.660956	0.466003	-0.018548
	C6200	C	0.656278	0.376222	-0.019211
	C6201	C	0.660973	0.286161	-0.018785
	C6202	C	0.670118	0.285947	-0.017936
	C6203	C	0.646423	0.376086	-0.021970
	C6204	C	0.711316	0.375591	-0.014042
	C6205	C	0.720628	0.375574	-0.020494
	C6206	C	0.725124	0.285765	-0.023062
	C6207	C	0.733860	0.285663	-0.028370
	C6208	C	0.738318	0.375443	-0.031194
	C6209	C	0.733855	0.465288	-0.028340
	C6210	C	0.725119	0.465338	-0.023047
	C6211	C	0.747584	0.375396	-0.038023
	H6212	H	0.737268	0.216087	-0.030386
	H6213	H	0.721756	0.216371	-0.020905
	H6214	H	0.730750	0.282329	0.077055
	H6215	H	0.718470	0.282442	0.050077
	H6216	H	0.697755	0.125944	-0.023259
	H6217	H	0.697682	0.374739	0.032988
	H6218	H	0.635303	0.375455	0.039528
	H6219	H	0.760182	0.124627	-0.029611
	H6220	H	0.673655	0.215968	-0.017713
	H6221	H	0.657439	0.216218	-0.019203
	H6222	H	0.659178	0.285160	0.041342
	H6223	H	0.674643	0.284867	0.031831
	H6224	H	0.657435	0.535958	-0.018796
	H6225	H	0.673602	0.535696	-0.017254
	H6226	H	0.674732	-0.034227	0.032143
	H6227	H	0.659214	-0.033771	0.041739
	H6228	H	0.718336	-0.033178	0.050371
	H6229	H	0.730671	-0.033521	0.077331
	H6230	H	0.721735	0.534930	-0.020800
	H6231	H	0.737243	0.535081	-0.030343
	Al6232	Al	0.687485	-0.499667	0.187673
	Al6233	Al	0.687490	-0.249807	0.187734
	Al6234	Al	0.635714	-0.248580	0.067616
	Al6235	Al	0.635686	-0.499477	0.067429
	O6236	O	0.695542	-0.459233	0.210612
	O6237	O	0.688266	-0.374589	0.174626
	O6238	O	0.686829	-0.124688	0.200850
	O6239	O	0.730504	-0.459645	0.286738
	O6240	O	0.677569	-0.458327	0.202417
	O6241	O	0.634948	-0.459038	0.235488
	O6242	O	0.677540	-0.289718	0.202380
	O6243	O	0.679468	-0.208517	0.164906
	O6244	O	0.644554	-0.208371	0.088595
	O6245	O	0.695512	-0.290797	0.210718
	O6246	O	0.697425	-0.208960	0.172970
	O6247	O	0.740041	-0.209252	0.139764
	O6248	O	0.634907	-0.290671	0.235293
	O6249	O	0.679458	-0.040598	0.164950
	O6250	O	0.644518	-0.040337	0.088794
	O6251	O	0.740049	-0.040939	0.139750
	O6252	O	0.697426	-0.040402	0.172917
	O6253	O	0.730435	-0.291547	0.286932
	O6254	O	0.625732	-0.124654	0.237030
	O6255	O	0.749194	-0.375001	0.138202
	C6256	C	0.716274	-0.286423	0.256880
	C6257	C	0.719910	-0.375628	0.264421
	C6258	C	0.716397	-0.464584	0.256549
	C6259	C	0.709430	-0.464410	0.241424
	C6260	C	0.705824	-0.375235	0.233815
	C6261	C	0.709316	-0.286213	0.241744
	C6262	C	0.698437	-0.374915	0.217119
	C6263	C	0.727476	-0.375599	0.280606
	C6264	C	0.673994	-0.374203	0.205136
	C6265	C	0.664870	-0.374409	0.212443
	C6266	C	0.660516	-0.285252	0.215647
	C6267	C	0.651958	-0.285457	0.222132
	C6268	C	0.647643	-0.374786	0.225338
	C6269	C	0.652012	-0.463994	0.222137
	C6270	C	0.660563	-0.463927	0.215669
	C6271	C	0.638499	-0.374732	0.232589
	C6272	C	0.676555	-0.124471	0.158442
	C6273	C	0.669162	-0.124607	0.141824
	C6274	C	0.665588	-0.035617	0.134041
	C6275	C	0.658657	-0.035747	0.118826
	C6276	C	0.655115	-0.124778	0.111087
	C6277	C	0.658718	-0.213853	0.118740
	C6278	C	0.665661	-0.213723	0.133947
	C6279	C	0.647540	-0.124484	0.094922
	C6280	C	0.700984	-0.124712	0.170112
	C6281	C	0.710099	-0.124904	0.162672
	C6282	C	0.714434	-0.214116	0.159411
	C6283	C	0.723002	-0.214131	0.152976
	C6284	C	0.727331	-0.124820	0.149769
	C6285	C	0.722976	-0.035513	0.152919
	C6286	C	0.714416	-0.035652	0.159372
	C6287	C	0.736470	-0.124957	0.142520
	H6288	H	0.726354	-0.282804	0.150365
	H6289	H	0.711123	-0.282925	0.162009
	H6290	H	0.718886	-0.217368	0.262939
	H6291	H	0.706564	-0.216954	0.235937
	H6292	H	0.688993	-0.374234	0.160322
	H6293	H	0.686186	-0.125504	0.215306
	H6294	H	0.626522	-0.124279	0.222702
	H6295	H	0.748337	-0.374938	0.152527
	H6296	H	0.668370	-0.282716	0.139801
	H6297	H	0.656102	-0.282900	0.112741
	H6298	H	0.648591	-0.216667	0.224591
	H6299	H	0.663834	-0.216207	0.213069
	H6300	H	0.655971	0.033384	0.112921
	H6301	H	0.668255	0.033656	0.139892
	H6302	H	0.663911	-0.532509	0.213118
	H6303	H	0.648679	-0.532971	0.224681
	H6304	H	0.706800	-0.533482	0.235360
	H6305	H	0.719127	-0.533774	0.262283
	H6306	H	0.711063	0.033254	0.161928
	H6307	H	0.726286	0.033071	0.150282
	Al6308	Al	0.687508	0.000370	0.187699
	Al6309	Al	0.687441	0.250381	0.187692
	Al6310	Al	0.635720	0.251123	0.067542
	Al6311	Al	0.635763	0.000492	0.067737
	O6312	O	0.695549	0.041400	0.210504
	O6313	O	0.688173	0.125356	0.174558
	O6314	O	0.686666	0.375144	0.200763
	O6315	O	0.730491	0.040823	0.286769
	O6316	O	0.677610	0.041158	0.202502
	O6317	O	0.634901	0.040929	0.235422
	O6318	O	0.677512	0.209446	0.202450
	O6319	O	0.679394	0.291602	0.164863
	O6320	O	0.644527	0.291927	0.088497
	O6321	O	0.695496	0.209605	0.210582
	O6322	O	0.697373	0.290875	0.172849
	O6323	O	0.739973	0.290715	0.139704
	O6324	O	0.634910	0.209471	0.235348
	O6325	O	0.679368	0.459829	0.165010
	O6326	O	0.644486	0.459678	0.088487
	O6327	O	0.740001	0.459202	0.139734
	O6328	O	0.697384	0.459297	0.172912
	O6329	O	0.730495	0.208895	0.286924
	O6330	O	0.625733	0.375333	0.236956
	O6331	O	0.749260	0.125010	0.138219
	C6332	C	0.716306	0.213922	0.256708
	C6333	C	0.719914	0.125011	0.264439
	C6334	C	0.716366	0.036033	0.256605
	C6335	C	0.709433	0.036444	0.241407
	C6336	C	0.705845	0.125480	0.233625
	C6337	C	0.709364	0.214343	0.241540
	C6338	C	0.698434	0.125565	0.216957
	C6339	C	0.727484	0.124905	0.280628
	C6340	C	0.673991	0.125214	0.205225
	C6341	C	0.664866	0.125056	0.212579
	C6342	C	0.660521	0.214308	0.215675
	C6343	C	0.651958	0.214297	0.222120
	C6344	C	0.647617	0.125136	0.225353
	C6345	C	0.651951	0.036011	0.222130
	C6346	C	0.660526	0.036048	0.215782
	C6347	C	0.638480	0.125176	0.232642
	C6348	C	0.676482	0.375910	0.158478
	C6349	C	0.669090	0.375876	0.141797
	C6350	C	0.665507	0.464798	0.134083
	C6351	C	0.658573	0.464826	0.118834
	C6352	C	0.655059	0.375989	0.110944
	C6353	C	0.658659	0.287087	0.118624
	C6354	C	0.665590	0.287202	0.133839
	C6355	C	0.647490	0.376042	0.094749
	C6356	C	0.700951	0.374968	0.170154
	C6357	C	0.710075	0.375098	0.162821
	C6358	C	0.714402	0.285848	0.159507
	C6359	C	0.722948	0.285900	0.152992
	C6360	C	0.727291	0.375214	0.149826
	C6361	C	0.722971	0.464547	0.153219
	C6362	C	0.714421	0.464492	0.159704
	C6363	C	0.736428	0.375003	0.142526
	H6364	H	0.726270	0.217276	0.150403
	H6365	H	0.711066	0.216997	0.162085
	H6366	H	0.718976	0.282717	0.262706
	H6367	H	0.706667	0.283445	0.235598
	H6368	H	0.689025	0.125660	0.160267
	H6369	H	0.685650	0.374877	0.214914
	H6370	H	0.626672	0.374948	0.222726
	H6371	H	0.748558	0.125060	0.152572
	H6372	H	0.668264	0.217886	0.139731
	H6373	H	0.656014	0.217950	0.112652
	H6374	H	0.648592	0.283027	0.224583
	H6375	H	0.663835	0.282711	0.212981
	H6376	H	0.655844	0.533826	0.113077
	H6377	H	0.668118	0.533672	0.140112
	H6378	H	0.663841	-0.032582	0.213173
	H6379	H	0.648631	-0.032761	0.224678
	H6380	H	0.706783	-0.032615	0.235355
	H6381	H	0.719066	-0.033036	0.262519
	H6382	H	0.711100	0.533066	0.162485
	H6383	H	0.726363	0.533248	0.150830
	Al6384	Al	0.676732	-0.501054	0.370201
	Al6385	Al	0.676742	-0.250107	0.370329
	Al6386	Al	0.624993	-0.249791	0.250146
	Al6387	Al	0.624997	-0.499639	0.250070
	O6388	O	0.686415	-0.459856	0.389172
	O6389	O	0.676922	-0.375363	0.356831
	O6390	O	0.676824	-0.125503	0.383828
	O6391	O	0.732454	-0.459167	0.397746
	O6392	O	0.667248	-0.459956	0.386664
	O6393	O	0.623740	-0.459475	0.415975
	O6394	O	0.667228	-0.291564	0.386729
	O6395	O	0.667935	-0.209205	0.349439
	O6396	O	0.633049	-0.208535	0.272976
	O6397	O	0.686447	-0.291530	0.389056
	O6398	O	0.686264	-0.209910	0.353409
	O6399	O	0.729831	-0.209979	0.324337
	O6400	O	0.623703	-0.291141	0.415837
	O6401	O	0.667958	-0.041121	0.349432
	O6402	O	0.633022	-0.040509	0.272962
	O6403	O	0.729835	-0.041585	0.324215
	O6404	O	0.686261	-0.041574	0.353224
	O6405	O	0.732421	-0.290999	0.397628
	O6406	O	0.614476	-0.124822	0.419491
	O6407	O	0.739329	-0.375495	0.321166
	C6408	C	0.713958	-0.285482	0.393702
	C6409	C	0.718699	-0.375194	0.394088
	C6410	C	0.714023	-0.465122	0.393471
	C6411	C	0.704887	-0.465482	0.392752
	C6412	C	0.700153	-0.375852	0.392596
	C6413	C	0.704832	-0.285819	0.393038
	C6414	C	0.690309	-0.375789	0.390208
	C6415	C	0.728551	-0.375040	0.396575
	C6416	C	0.663598	-0.375669	0.389242
	C6417	C	0.654297	-0.375870	0.395781
	C6418	C	0.649816	-0.285948	0.398250
	C6419	C	0.641071	-0.285621	0.403508
	C6420	C	0.636606	-0.375252	0.406350
	C6421	C	0.641083	-0.465102	0.403716
	C6422	C	0.649816	-0.465398	0.398435
	C6423	C	0.627347	-0.375304	0.413235
	C6424	C	0.664957	-0.125274	0.343209
	C6425	C	0.657414	-0.124788	0.326847
	C6426	C	0.653799	-0.035717	0.319241
	C6427	C	0.646863	-0.035588	0.303994
	C6428	C	0.643347	-0.124532	0.296078
	C6429	C	0.646939	-0.213588	0.303734
	C6430	C	0.653877	-0.213739	0.318981
	C6431	C	0.635954	-0.124534	0.279348
	C6432	C	0.689895	-0.125795	0.350575
	C6433	C	0.699143	-0.125875	0.343664
	C6434	C	0.703633	-0.215657	0.340988
	C6435	C	0.712382	-0.215520	0.335713
	C6436	C	0.716840	-0.125658	0.333081
	C6437	C	0.712329	-0.035969	0.335646
	C6438	C	0.703588	-0.035962	0.340928
	C6439	C	0.726154	-0.125609	0.326673
	H6440	H	0.715791	-0.285103	0.333619
	H6441	H	0.700258	-0.285273	0.343120
	H6442	H	0.717456	-0.215290	0.393976
	H6443	H	0.701291	-0.215868	0.392787
	H6444	H	0.677368	-0.375349	0.342405
	H6445	H	0.677321	-0.125201	0.398261
	H6446	H	0.614927	-0.124606	0.405030
	H6447	H	0.739711	-0.375252	0.335669
	H6448	H	0.656556	-0.282950	0.324898
	H6449	H	0.644350	-0.282551	0.297627
	H6450	H	0.637714	-0.215694	0.405511
	H6451	H	0.653221	-0.216463	0.396054
	H6452	H	0.644228	0.033539	0.298032
	H6453	H	0.656394	0.033263	0.325344
	H6454	H	0.653210	-0.535276	0.396425
	H6455	H	0.637694	-0.534756	0.405895
	H6456	H	0.701388	-0.535450	0.392304
	H6457	H	0.717592	-0.534789	0.393467
	H6458	H	0.700190	0.033919	0.342899
	H6459	H	0.715691	0.033556	0.333585
	Al6460	Al	0.676781	-0.000793	0.370348
	Al6461	Al	0.676791	0.250036	0.370135
	Al6462	Al	0.624962	0.250214	0.250086
	Al6463	Al	0.624963	0.000091	0.250156
	O6464	O	0.686513	0.040331	0.389132
	O6465	O	0.677000	0.124442	0.356789
	O6466	O	0.676875	0.374457	0.383669
	O6467	O	0.732464	0.041554	0.397583
	O6468	O	0.667291	0.040654	0.386745
	O6469	O	0.623792	0.040811	0.415930
	O6470	O	0.667281	0.209107	0.386576
	O6471	O	0.667964	0.290247	0.349161
	O6472	O	0.633023	0.290826	0.272952
	O6473	O	0.686476	0.208569	0.389077
	O6474	O	0.686282	0.290413	0.353226
	O6475	O	0.729839	0.290485	0.324457
	O6476	O	0.623750	0.209102	0.415849
	O6477	O	0.667950	0.458265	0.349273
	O6478	O	0.633011	0.459076	0.272958
	O6479	O	0.729795	0.458845	0.324226
	O6480	O	0.686236	0.459138	0.353123
	O6481	O	0.732442	0.209768	0.397680
	O6482	O	0.614497	0.375014	0.419471
	O6483	O	0.739323	0.124313	0.321197
	C6484	C	0.714040	0.215002	0.393609
	C6485	C	0.718745	0.125239	0.393991
	C6486	C	0.714056	0.035031	0.393365
	C6487	C	0.704929	0.034630	0.392729
	C6488	C	0.700223	0.124537	0.392563
	C6489	C	0.704907	0.214526	0.392932
	C6490	C	0.690373	0.124517	0.390226
	C6491	C	0.728571	0.125638	0.396512
	C6492	C	0.663627	0.124850	0.389094
	C6493	C	0.654326	0.125002	0.395622
	C6494	C	0.649852	0.214754	0.398249
	C6495	C	0.641118	0.214782	0.403503
	C6496	C	0.636659	0.124920	0.406214
	C6497	C	0.641119	0.035130	0.403428
	C6498	C	0.649853	0.035156	0.398154
	C6499	C	0.627384	0.124964	0.413175
	C6500	C	0.664932	0.374377	0.343087
	C6501	C	0.657374	0.374518	0.326862
	C6502	C	0.653743	0.463598	0.319277
	C6503	C	0.646813	0.463635	0.304047
	C6504	C	0.643331	0.374612	0.296103
	C6505	C	0.646878	0.285452	0.303914
	C6506	C	0.653809	0.285430	0.319135
	C6507	C	0.635944	0.374993	0.279378
	C6508	C	0.689880	0.374765	0.350442
	C6509	C	0.699141	0.374824	0.343538
	C6510	C	0.703631	0.285045	0.340963
	C6511	C	0.712368	0.285144	0.335717
	C6512	C	0.716828	0.375073	0.333027
	C6513	C	0.712352	0.464980	0.335522
	C6514	C	0.703604	0.464755	0.340770
	C6515	C	0.726155	0.374807	0.326652
	H6516	H	0.715780	0.215616	0.333751
	H6517	H	0.700277	0.215077	0.343205
	H6518	H	0.717552	0.285278	0.393851
	H6519	H	0.701349	0.284533	0.392691
	H6520	H	0.677327	0.124042	0.342267
	H6521	H	0.677375	0.374523	0.398197
	H6522	H	0.614978	0.375027	0.404960
	H6523	H	0.739638	0.124660	0.335748
	H6524	H	0.656462	0.216151	0.325133
	H6525	H	0.644223	0.216232	0.297889
	H6526	H	0.637728	0.284210	0.405655
	H6527	H	0.653240	0.284324	0.396159
	H6528	H	0.644110	0.532714	0.298162
	H6529	H	0.656368	0.532735	0.325424
	H6530	H	0.653240	-0.034444	0.395972
	H6531	H	0.637752	-0.034468	0.405472
	H6532	H	0.701424	-0.035342	0.392291
	H6533	H	0.717592	-0.034979	0.393429
	H6534	H	0.700195	0.534459	0.342791
	H6535	H	0.715751	0.534593	0.333449
	Al6536	Al	0.680060	-0.499825	0.477653
	Al6537	Al	0.680050	-0.249852	0.477756
	Al6538	Al	0.614264	-0.250328	0.432896
	Al6539	Al	0.614271	-0.499813	0.433030
	O6540	O	0.690206	-0.459269	0.494716
	O6541	O	0.679649	-0.375048	0.464042
	O6542	O	0.680414	-0.124768	0.491365
	O6543	O	0.736149	-0.458819	0.502875
	O6544	O	0.670930	-0.458626	0.495801
	O6545	O	0.626654	-0.458444	0.521889
	O6546	O	0.670951	-0.290638	0.496026
	O6547	O	0.669976	-0.208715	0.460464
	O6548	O	0.623995	-0.209396	0.451746
	O6549	O	0.690159	-0.291047	0.495002
	O6550	O	0.689134	-0.209152	0.459525
	O6551	O	0.733337	-0.209057	0.432898
	O6552	O	0.626718	-0.290281	0.522132
	O6553	O	0.669947	-0.040621	0.460465
	O6554	O	0.623991	-0.041210	0.451776
	O6555	O	0.733358	-0.040733	0.433122
	O6556	O	0.689153	-0.041085	0.459676
	O6557	O	0.736169	-0.290249	0.502913
	O6558	O	0.617232	-0.124507	0.526675
	O6559	O	0.742910	-0.375085	0.428555
	C6560	C	0.717708	-0.284582	0.499263
	C6561	C	0.722421	-0.374483	0.499562
	C6562	C	0.717743	-0.464707	0.499186
	C6563	C	0.708614	-0.464759	0.498628
	C6564	C	0.703909	-0.374816	0.498353
	C6565	C	0.708579	-0.284516	0.498700
	C6566	C	0.694047	-0.375078	0.495923
	C6567	C	0.732285	-0.374442	0.501897
	C6568	C	0.667254	-0.374589	0.498450
	C6569	C	0.657806	-0.374502	0.504579
	C6570	C	0.653220	-0.284647	0.506655
	C6571	C	0.644346	-0.284586	0.510933
	C6572	C	0.639805	-0.374452	0.513355
	C6573	C	0.644364	-0.464247	0.511078
	C6574	C	0.653240	-0.464312	0.506804
	C6575	C	0.630368	-0.374422	0.519466
	C6576	C	0.666072	-0.124683	0.459359
	C6577	C	0.656238	-0.124888	0.456828
	C6578	C	0.651528	-0.035136	0.456400
	C6579	C	0.642400	-0.035283	0.455646
	C6580	C	0.637727	-0.125212	0.455246
	C6581	C	0.642436	-0.214993	0.455537
	C6582	C	0.651567	-0.214925	0.456298
	C6583	C	0.627863	-0.125268	0.452829
	C6584	C	0.692814	-0.125161	0.456904
	C6585	C	0.702241	-0.125214	0.450705
	C6586	C	0.706790	-0.215152	0.448307
	C6587	C	0.715666	-0.214825	0.443921
	C6588	C	0.720218	-0.125003	0.441649
	C6589	C	0.715655	-0.035058	0.443957
	C6590	C	0.706774	-0.035249	0.448324
	C6591	C	0.729652	-0.124954	0.435443
	H6592	H	0.719096	-0.285001	0.442399
	H6593	H	0.703396	-0.285471	0.450008
	H6594	H	0.721247	-0.214744	0.499494
	H6595	H	0.705069	-0.214289	0.498478
	H6596	H	0.679119	-0.374763	0.449527
	H6597	H	0.680953	-0.124354	0.505824
	H6598	H	0.616764	-0.124859	0.512016
	H6599	H	0.743441	-0.374705	0.443101
	H6600	H	0.655141	-0.284771	0.456592
	H6601	H	0.638922	-0.285174	0.455263
	H6602	H	0.640909	-0.214431	0.512445
	H6603	H	0.656614	-0.214480	0.504944
	H6604	H	0.638832	0.034321	0.455452
	H6605	H	0.655038	0.035003	0.456730
	H6606	H	0.656671	-0.534541	0.505129
	H6607	H	0.640963	-0.534624	0.512729
	H6608	H	0.705066	-0.534842	0.498360
	H6609	H	0.721269	-0.535011	0.499410
	H6610	H	0.703344	0.034911	0.449979
	H6611	H	0.719054	0.034955	0.442374
	Al6612	Al	0.680035	-0.000064	0.477704
	Al6613	Al	0.680066	0.249919	0.477705
	Al6614	Al	0.614257	0.249528	0.432992
	Al6615	Al	0.614292	0.000601	0.432974
	O6616	O	0.690170	0.040395	0.494810
	O6617	O	0.679642	0.125192	0.464108
	O6618	O	0.680422	0.375078	0.491274
	O6619	O	0.736104	0.040831	0.503041
	O6620	O	0.670897	0.041407	0.495738
	O6621	O	0.626607	0.041434	0.521739
	O6622	O	0.670897	0.209713	0.495894
	O6623	O	0.669970	0.291076	0.460378
	O6624	O	0.623977	0.290735	0.451825
	O6625	O	0.690121	0.208839	0.494927
	O6626	O	0.689156	0.290548	0.459450
	O6627	O	0.733406	0.290870	0.433140
	O6628	O	0.626709	0.209584	0.522116
	O6629	O	0.669937	0.459582	0.460505
	O6630	O	0.623985	0.459290	0.451785
	O6631	O	0.733392	0.458884	0.433163
	O6632	O	0.689184	0.458598	0.459524
	O6633	O	0.736129	0.209124	0.503013
	O6634	O	0.617193	0.375408	0.526554
	O6635	O	0.742940	0.125100	0.428425
	C6636	C	0.717690	0.215343	0.499239
	C6637	C	0.722385	0.125299	0.499578
	C6638	C	0.717711	0.035325	0.499124
	C6639	C	0.708571	0.035311	0.498526
	C6640	C	0.703878	0.125276	0.498281
	C6641	C	0.708552	0.215379	0.498642
	C6642	C	0.694022	0.124839	0.495869
	C6643	C	0.732262	0.125126	0.501910
	C6644	C	0.667193	0.125683	0.498311
	C6645	C	0.657776	0.125638	0.504443
	C6646	C	0.653180	0.215398	0.506586
	C6647	C	0.644323	0.215042	0.510865
	C6648	C	0.639754	0.125009	0.513139
	C6649	C	0.644359	0.035262	0.511018
	C6650	C	0.653226	0.035685	0.506735
	C6651	C	0.630346	0.125405	0.519372
	C6652	C	0.666076	0.375144	0.459314
	C6653	C	0.656218	0.375163	0.456701
	C6654	C	0.651512	0.464977	0.456380
	C6655	C	0.642384	0.464908	0.455664
	C6656	C	0.637718	0.374865	0.455215
	C6657	C	0.642406	0.284880	0.455525
	C6658	C	0.651539	0.285039	0.456230
	C6659	C	0.627856	0.374882	0.452881
	C6660	C	0.692862	0.374282	0.456996
	C6661	C	0.702288	0.374344	0.450771
	C6662	C	0.706874	0.284538	0.448496
	C6663	C	0.715747	0.284700	0.444198
	C6664	C	0.720304	0.374708	0.441887
	C6665	C	0.715700	0.464397	0.444071
	C6666	C	0.706828	0.464234	0.448387
	C6667	C	0.729710	0.374798	0.435640
	H6668	H	0.719185	0.214672	0.442483
	H6669	H	0.703449	0.214562	0.450114
	H6670	H	0.721197	0.285283	0.499470
	H6671	H	0.704992	0.284982	0.498593
	H6672	H	0.679074	0.125172	0.449510
	H6673	H	0.681004	0.375068	0.505795
	H6674	H	0.616736	0.374919	0.512039
	H6675	H	0.743582	0.125193	0.443045
	H6676	H	0.655065	0.214989	0.456441
	H6677	H	0.638877	0.214982	0.455204
	H6678	H	0.640889	0.285181	0.512423
	H6679	H	0.656601	0.285601	0.504896
	H6680	H	0.638840	0.534851	0.455386
	H6681	H	0.655033	0.534890	0.456770
	H6682	H	0.656672	-0.034444	0.505119
	H6683	H	0.640930	-0.035022	0.512693
	H6684	H	0.705081	-0.034967	0.498322
	H6685	H	0.721280	-0.034537	0.499259
	H6686	H	0.703375	0.534234	0.449938
	H6687	H	0.719103	0.534708	0.442326
	Al6688	Al	0.683769	-0.499685	0.582657
	Al6689	Al	0.683770	-0.249526	0.582586
	Al6690	Al	0.617583	-0.249484	0.540292
	Al6691	Al	0.617544	-0.499609	0.540057
	O6692	O	0.693869	-0.458508	0.599959
	O6693	O	0.683406	-0.374502	0.569006
	O6694	O	0.684202	-0.124438	0.596272
	O6695	O	0.739902	-0.457956	0.607809
	O6696	O	0.674633	-0.458396	0.600853
	O6697	O	0.630351	-0.457440	0.626912
	O6698	O	0.674607	-0.290185	0.600626
	O6699	O	0.673695	-0.207873	0.565479
	O6700	O	0.627695	-0.208613	0.557335
	O6701	O	0.693867	-0.290290	0.599860
	O6702	O	0.692870	-0.208284	0.564339
	O6703	O	0.737206	-0.208516	0.538424
	O6704	O	0.630424	-0.289368	0.626989
	O6705	O	0.673655	-0.039464	0.565604
	O6706	O	0.627672	-0.040377	0.557400
	O6707	O	0.737185	-0.040282	0.538377
	O6708	O	0.692914	-0.039916	0.564438
	O6709	O	0.739853	-0.289652	0.608180
	O6710	O	0.620886	-0.124021	0.631509
	O6711	O	0.746710	-0.375036	0.533615
	C6712	C	0.721411	-0.284148	0.604292
	C6713	C	0.726131	-0.374017	0.604620
	C6714	C	0.721460	-0.464108	0.604180
	C6715	C	0.712323	-0.464340	0.603674
	C6716	C	0.707610	-0.374375	0.603423
	C6717	C	0.712282	-0.284341	0.603755
	C6718	C	0.697755	-0.374510	0.600955
	C6719	C	0.735994	-0.373938	0.606941
	C6720	C	0.670940	-0.374452	0.603288
	C6721	C	0.661521	-0.374374	0.609499
	C6722	C	0.656967	-0.284306	0.611717
	C6723	C	0.648098	-0.284156	0.616026
	C6724	C	0.643523	-0.373940	0.618321
	C6725	C	0.648099	-0.463995	0.616199
	C6726	C	0.656967	-0.464327	0.611882
	C6727	C	0.634097	-0.373657	0.624532
	C6728	C	0.669789	-0.123760	0.564448
	C6729	C	0.659945	-0.123858	0.562089
	C6730	C	0.655239	-0.033981	0.561943
	C6731	C	0.646097	-0.034018	0.561354
	C6732	C	0.641422	-0.124097	0.560890
	C6733	C	0.646121	-0.214033	0.560971
	C6734	C	0.655267	-0.214012	0.561555
	C6735	C	0.631565	-0.124543	0.558489
	C6736	C	0.696598	-0.124252	0.561959
	C6737	C	0.706023	-0.124222	0.555811
	C6738	C	0.710591	-0.214145	0.553568
	C6739	C	0.719492	-0.214321	0.549330
	C6740	C	0.724084	-0.124443	0.547130
	C6741	C	0.719506	-0.034536	0.549292
	C6742	C	0.710614	-0.034432	0.553534
	C6743	C	0.733513	-0.124319	0.540882
	H6744	H	0.722873	-0.284641	0.547588
	H6745	H	0.707130	-0.284156	0.555131
	H6746	H	0.724950	-0.214100	0.604513
	H6747	H	0.708763	-0.214101	0.603617
	H6748	H	0.682850	-0.374622	0.554531
	H6749	H	0.684710	-0.125193	0.610686
	H6750	H	0.620283	-0.124322	0.616888
	H6751	H	0.747414	-0.375039	0.548226
	H6752	H	0.658774	-0.284182	0.561530
	H6753	H	0.642593	-0.283921	0.560521
	H6754	H	0.644642	-0.213986	0.617483
	H6755	H	0.660367	-0.214156	0.609841
	H6756	H	0.642594	0.036280	0.561265
	H6757	H	0.658767	0.036008	0.562272
	H6758	H	0.660401	-0.534253	0.610160
	H6759	H	0.644676	-0.533928	0.617778
	H6760	H	0.708770	-0.534477	0.603434
	H6761	H	0.725003	-0.533823	0.604292
	H6762	H	0.707204	0.036025	0.554994
	H6763	H	0.722920	0.035513	0.547471
	Al6764	Al	0.683795	0.000439	0.582736
	Al6765	Al	0.683771	0.250316	0.582781
	Al6766	Al	0.617552	0.250507	0.540153
	Al6767	Al	0.617574	0.000494	0.540208
	O6768	O	0.693929	0.041213	0.599821
	O6769	O	0.683417	0.125964	0.569157
	O6770	O	0.684203	0.375487	0.596357
	O6771	O	0.739960	0.041741	0.607796
	O6772	O	0.674684	0.041094	0.601038
	O6773	O	0.630400	0.042360	0.626928
	O6774	O	0.674675	0.209077	0.600953
	O6775	O	0.673679	0.291372	0.565594
	O6776	O	0.627670	0.291119	0.557417
	O6777	O	0.693892	0.209578	0.600033
	O6778	O	0.692894	0.291569	0.564604
	O6779	O	0.737170	0.291353	0.538382
	O6780	O	0.630390	0.210654	0.626737
	O6781	O	0.673638	0.459643	0.565646
	O6782	O	0.627664	0.459607	0.557284
	O6783	O	0.737127	0.459498	0.538171
	O6784	O	0.692925	0.459744	0.564617
	O6785	O	0.739866	0.209988	0.608022
	O6786	O	0.620863	0.376397	0.631498
	O6787	O	0.746700	0.125118	0.533689
	C6788	C	0.721472	0.215532	0.604184
	C6789	C	0.726174	0.125579	0.604408
	C6790	C	0.721506	0.035528	0.604022
	C6791	C	0.712373	0.035503	0.603553
	C6792	C	0.707658	0.125353	0.603228
	C6793	C	0.712333	0.215347	0.603713
	C6794	C	0.697794	0.125577	0.600920
	C6795	C	0.736034	0.125685	0.606766
	C6796	C	0.670976	0.125368	0.603524
	C6797	C	0.661535	0.125544	0.609558
	C6798	C	0.656995	0.215569	0.611801
	C6799	C	0.648107	0.215909	0.616027
	C6800	C	0.643524	0.126171	0.618234
	C6801	C	0.648092	0.036238	0.616143
	C6802	C	0.656976	0.035826	0.611902
	C6803	C	0.634087	0.126462	0.624381
	C6804	C	0.669773	0.375446	0.564539
	C6805	C	0.659922	0.375333	0.562069
	C6806	C	0.655222	0.465442	0.561866
	C6807	C	0.646071	0.465604	0.561226
	C6808	C	0.641405	0.375556	0.560802
	C6809	C	0.646094	0.285572	0.560953
	C6810	C	0.655241	0.285401	0.561551
	C6811	C	0.631541	0.375436	0.558404
	C6812	C	0.696602	0.375593	0.562094
	C6813	C	0.706026	0.375617	0.555921
	C6814	C	0.710592	0.285637	0.553640
	C6815	C	0.719478	0.285617	0.549300
	C6816	C	0.724052	0.375340	0.546966
	C6817	C	0.719467	0.465234	0.549127
	C6818	C	0.710585	0.465441	0.553524
	C6819	C	0.733460	0.375360	0.540743
	H6820	H	0.722898	0.215278	0.547670
	H6821	H	0.707176	0.215310	0.555299
	H6822	H	0.724971	0.285930	0.604431
	H6823	H	0.708794	0.285284	0.603620
	H6824	H	0.683055	0.125921	0.554688
	H6825	H	0.684906	0.375091	0.610758
	H6826	H	0.620209	0.376808	0.616851
	H6827	H	0.747260	0.124562	0.548189
	H6828	H	0.658777	0.215261	0.561696
	H6829	H	0.642592	0.215463	0.560608
	H6830	H	0.644697	0.286331	0.617434
	H6831	H	0.660417	0.285567	0.609992
	H6832	H	0.642520	0.535699	0.561200
	H6833	H	0.658717	0.535738	0.562216
	H6834	H	0.660358	-0.034241	0.610234
	H6835	H	0.644639	-0.033875	0.617659
	H6836	H	0.708870	-0.034981	0.603334
	H6837	H	0.725042	-0.034419	0.604140
	H6838	H	0.707144	0.535578	0.555107
	H6839	H	0.722859	0.535329	0.547425
	Al6840	Al	0.687520	-0.498845	0.687536
	Al6841	Al	0.687518	-0.249022	0.687470
	Al6842	Al	0.621313	-0.248737	0.645169
	Al6843	Al	0.621294	-0.498835	0.645240
	O6844	O	0.697655	-0.458304	0.704583
	O6845	O	0.687118	-0.374024	0.673903
	O6846	O	0.687938	-0.123908	0.701129
	O6847	O	0.743660	-0.458201	0.712805
	O6848	O	0.678424	-0.457800	0.705784
	O6849	O	0.634110	-0.457817	0.731681
	O6850	O	0.678379	-0.289467	0.705721
	O6851	O	0.677382	-0.208209	0.670341
	O6852	O	0.631357	-0.207461	0.662414
	O6853	O	0.697650	-0.290111	0.704553
	O6854	O	0.696618	-0.208387	0.669247
	O6855	O	0.740935	-0.208424	0.643492
	O6856	O	0.634148	-0.289699	0.731880
	O6857	O	0.677354	-0.039814	0.670597
	O6858	O	0.631406	-0.039421	0.662197
	O6859	O	0.740922	-0.040354	0.643401
	O6860	O	0.696619	-0.040066	0.669230
	O6861	O	0.743622	-0.289828	0.712953
	O6862	O	0.624618	-0.123794	0.736370
	O6863	O	0.750438	-0.374447	0.638791
	C6864	C	0.725211	-0.284299	0.709094
	C6865	C	0.729905	-0.374181	0.709366
	C6866	C	0.725227	-0.464120	0.709003
	C6867	C	0.716082	-0.464344	0.708454
	C6868	C	0.711391	-0.374378	0.708110
	C6869	C	0.716066	-0.284441	0.708528
	C6870	C	0.701531	-0.374326	0.705644
	C6871	C	0.739771	-0.373983	0.711828
	C6872	C	0.674700	-0.373731	0.708247
	C6873	C	0.665265	-0.373545	0.714431
	C6874	C	0.660693	-0.283841	0.716755
	C6875	C	0.651825	-0.283964	0.721003
	C6876	C	0.647265	-0.373974	0.723167
	C6877	C	0.651824	-0.463761	0.720778
	C6878	C	0.660698	-0.463531	0.716543
	C6879	C	0.637821	-0.373757	0.729267
	C6880	C	0.673488	-0.124123	0.669416
	C6881	C	0.663641	-0.124138	0.666888
	C6882	C	0.658955	-0.034082	0.666648
	C6883	C	0.649819	-0.033878	0.666058
	C6884	C	0.645134	-0.123895	0.665683
	C6885	C	0.649830	-0.214001	0.665953
	C6886	C	0.658973	-0.214176	0.666533
	C6887	C	0.635270	-0.123737	0.663339
	C6888	C	0.700294	-0.124462	0.666766
	C6889	C	0.709741	-0.124305	0.660677
	C6890	C	0.714321	-0.214321	0.658466
	C6891	C	0.723218	-0.214275	0.654255
	C6892	C	0.727776	-0.124286	0.651959
	C6893	C	0.723212	-0.034386	0.654287
	C6894	C	0.714319	-0.034398	0.658515
	C6895	C	0.737219	-0.124377	0.645885
	H6896	H	0.726663	-0.284540	0.652693
	H6897	H	0.710920	-0.284576	0.660051
	H6898	H	0.728694	-0.214233	0.709311
	H6899	H	0.712534	-0.214200	0.708294
	H6900	H	0.686629	-0.374243	0.659328
	H6901	H	0.688412	-0.123506	0.715649
	H6902	H	0.623994	-0.124002	0.721833
	H6903	H	0.750955	-0.374583	0.653282
	H6904	H	0.662484	-0.284420	0.666575
	H6905	H	0.646288	-0.283931	0.665595
	H6906	H	0.648402	-0.213916	0.722753
	H6907	H	0.664115	-0.213814	0.715276
	H6908	H	0.646318	0.036511	0.665774
	H6909	H	0.662505	0.035960	0.666808
	H6910	H	0.664143	-0.533565	0.714846
	H6911	H	0.648394	-0.533865	0.722341
	H6912	H	0.712582	-0.534605	0.708216
	H6913	H	0.728753	-0.534304	0.709117
	H6914	H	0.710887	0.035866	0.660060
	H6915	H	0.726632	0.035722	0.652734
	Al6916	Al	0.687530	0.001105	0.687518
	Al6917	Al	0.687522	0.251192	0.687588
	Al6918	Al	0.621284	0.251448	0.644990
	Al6919	Al	0.621288	0.001256	0.645113
	O6920	O	0.697668	0.041649	0.704529
	O6921	O	0.687086	0.126183	0.673877
	O6922	O	0.687938	0.376082	0.701262
	O6923	O	0.743630	0.041533	0.712681
	O6924	O	0.678456	0.042765	0.705835
	O6925	O	0.634179	0.042131	0.731944
	O6926	O	0.678355	0.210622	0.705639
	O6927	O	0.677412	0.292197	0.670344
	O6928	O	0.631417	0.291754	0.662228
	O6929	O	0.697585	0.209762	0.704837
	O6930	O	0.696679	0.291346	0.669510
	O6931	O	0.740928	0.291598	0.643363
	O6932	O	0.634103	0.210039	0.731683
	O6933	O	0.677413	0.460625	0.670357
	O6934	O	0.631410	0.460037	0.662320
	O6935	O	0.740871	0.459995	0.643195
	O6936	O	0.696568	0.459491	0.669229
	O6937	O	0.743614	0.209938	0.712804
	O6938	O	0.624575	0.376382	0.736333
	O6939	O	0.750462	0.125821	0.638704
	C6940	C	0.725196	0.215910	0.708950
	C6941	C	0.729889	0.125801	0.709303
	C6942	C	0.725192	0.036083	0.708968
	C6943	C	0.716059	0.036008	0.708471
	C6944	C	0.711369	0.125959	0.708166
	C6945	C	0.716059	0.215852	0.708449
	C6946	C	0.701518	0.126004	0.705766
	C6947	C	0.739733	0.125614	0.711724
	C6948	C	0.674718	0.126606	0.708249
	C6949	C	0.665288	0.126227	0.714296
	C6950	C	0.660710	0.216139	0.716519
	C6951	C	0.651839	0.216185	0.720800
	C6952	C	0.647268	0.126391	0.723116
	C6953	C	0.651855	0.036588	0.720926
	C6954	C	0.660734	0.036480	0.716637
	C6955	C	0.637850	0.126140	0.729260
	C6956	C	0.673520	0.376547	0.669273
	C6957	C	0.663658	0.376291	0.666910
	C6958	C	0.658960	0.466341	0.666735
	C6959	C	0.649806	0.466309	0.666186
	C6960	C	0.645156	0.376164	0.665711
	C6961	C	0.649854	0.286232	0.666044
	C6962	C	0.658993	0.286262	0.666590
	C6963	C	0.635289	0.376011	0.663310
	C6964	C	0.700315	0.375737	0.666858
	C6965	C	0.709750	0.375643	0.660730
	C6966	C	0.714347	0.285736	0.658491
	C6967	C	0.723218	0.285903	0.654192
	C6968	C	0.727761	0.375893	0.651871
	C6969	C	0.723192	0.465852	0.654275
	C6970	C	0.714318	0.465649	0.658505
	C6971	C	0.737194	0.375792	0.645729
	H6972	H	0.726672	0.215940	0.652618
	H6973	H	0.710947	0.215416	0.660175
	H6974	H	0.728730	0.285671	0.708973
	H6975	H	0.712540	0.285950	0.708045
	H6976	H	0.686515	0.126627	0.659383
	H6977	H	0.688526	0.376084	0.715800
	H6978	H	0.623845	0.376495	0.721791
	H6979	H	0.751145	0.126114	0.653235
	H6980	H	0.662514	0.216058	0.666845
	H6981	H	0.646357	0.215913	0.665902
	H6982	H	0.648403	0.286118	0.722397
	H6983	H	0.664165	0.286472	0.714842
	H6984	H	0.646267	0.536344	0.666144
	H6985	H	0.662457	0.536608	0.667076
	H6986	H	0.664163	-0.033650	0.715049
	H6987	H	0.648435	-0.033567	0.722522
	H6988	H	0.712535	-0.034001	0.708114
	H6989	H	0.728688	-0.034014	0.708928
	H6990	H	0.710878	0.535601	0.660229
	H6991	H	0.726623	0.536063	0.652742
	Al6992	Al	0.691233	-0.499161	0.792424
	Al6993	Al	0.691233	-0.249058	0.792312
	Al6994	Al	0.625018	-0.248673	0.749995
	Al6995	Al	0.625007	-0.498659	0.749857
	O6996	O	0.701367	-0.458151	0.809603
	O6997	O	0.690828	-0.374107	0.778772
	O6998	O	0.691638	-0.123830	0.805906
	O6999	O	0.747368	-0.458847	0.817512
	O7000	O	0.682128	-0.458153	0.810651
	O7001	O	0.637826	-0.457607	0.836500
	O7002	O	0.682116	-0.290158	0.810463
	O7003	O	0.681140	-0.208027	0.775103
	O7004	O	0.635135	-0.207935	0.767125
	O7005	O	0.701344	-0.289858	0.809502
	O7006	O	0.700322	-0.208009	0.774093
	O7007	O	0.744686	-0.207938	0.748362
	O7008	O	0.637872	-0.289453	0.836753
	O7009	O	0.681144	-0.039673	0.775057
	O7010	O	0.635104	-0.039595	0.767174
	O7011	O	0.744643	-0.039619	0.748306
	O7012	O	0.700370	-0.039799	0.774065
	O7013	O	0.747354	-0.290788	0.817482
	O7014	O	0.628297	-0.123704	0.841343
	O7015	O	0.754180	-0.374358	0.743657
	C7016	C	0.728924	-0.284685	0.813814
	C7017	C	0.733618	-0.374756	0.814315
	C7018	C	0.728928	-0.464608	0.813962
	C7019	C	0.719790	-0.464468	0.813414
	C7020	C	0.715097	-0.374341	0.813022
	C7021	C	0.719793	-0.284641	0.813294
	C7022	C	0.705232	-0.374081	0.810726
	C7023	C	0.743477	-0.374801	0.816449
	C7024	C	0.678425	-0.374114	0.812969
	C7025	C	0.668998	-0.373983	0.819198
	C7026	C	0.664439	-0.284129	0.821387
	C7027	C	0.655561	-0.283906	0.825667
	C7028	C	0.650974	-0.373729	0.827920
	C7029	C	0.655533	-0.463610	0.825631
	C7030	C	0.664408	-0.463825	0.821329
	C7031	C	0.641551	-0.373494	0.834098
	C7032	C	0.677258	-0.123850	0.774007
	C7033	C	0.667396	-0.123642	0.771788
	C7034	C	0.662699	-0.033567	0.771348
	C7035	C	0.653571	-0.033640	0.770823
	C7036	C	0.648870	-0.123573	0.770614
	C7037	C	0.653567	-0.213639	0.770957
	C7038	C	0.662696	-0.213599	0.771500
	C7039	C	0.639001	-0.123769	0.768244
	C7040	C	0.704048	-0.124089	0.771565
	C7041	C	0.713468	-0.124376	0.765424
	C7042	C	0.718072	-0.214209	0.763254
	C7043	C	0.726960	-0.214221	0.759101
	C7044	C	0.731515	-0.124391	0.756899
	C7045	C	0.726923	-0.034666	0.759143
	C7046	C	0.718042	-0.034582	0.763268
	C7047	C	0.740942	-0.123999	0.750701
	H7048	H	0.730418	-0.284250	0.757548
	H7049	H	0.714671	-0.284276	0.764842
	H7050	H	0.732456	-0.214639	0.813736
	H7051	H	0.716260	-0.214428	0.813056
	H7052	H	0.690206	-0.374279	0.764226
	H7053	H	0.692317	-0.123509	0.820430
	H7054	H	0.627539	-0.124157	0.826680
	H7055	H	0.754869	-0.374730	0.758225
	H7056	H	0.666236	-0.283702	0.771780
	H7057	H	0.650040	-0.283716	0.770839
	H7058	H	0.652200	-0.213629	0.827472
	H7059	H	0.667882	-0.214142	0.819866
	H7060	H	0.650025	0.036368	0.770631
	H7061	H	0.666223	0.036265	0.771450
	H7062	H	0.667831	-0.534199	0.819781
	H7063	H	0.652109	-0.533675	0.827439
	H7064	H	0.716262	-0.534325	0.813291
	H7065	H	0.732456	-0.534759	0.814005
	H7066	H	0.714583	0.035370	0.764863
	H7067	H	0.730337	0.035706	0.757565
	Al7068	Al	0.691219	0.001101	0.792229
	Al7069	Al	0.691251	0.250614	0.792429
	Al7070	Al	0.625042	0.251395	0.749942
	Al7071	Al	0.625007	0.001444	0.750023
	O7072	O	0.701331	0.041473	0.809480
	O7073	O	0.690845	0.125824	0.778704
	O7074	O	0.691651	0.375516	0.806024
	O7075	O	0.747347	0.040810	0.817607
	O7076	O	0.682064	0.042270	0.810340
	O7077	O	0.637809	0.042321	0.836604
	O7078	O	0.682073	0.210406	0.810589
	O7079	O	0.681141	0.292257	0.775210
	O7080	O	0.635162	0.292098	0.767088
	O7081	O	0.701342	0.209782	0.809478
	O7082	O	0.700349	0.291967	0.774196
	O7083	O	0.744583	0.291595	0.748149
	O7084	O	0.637848	0.210358	0.836672
	O7085	O	0.681122	0.460472	0.775346
	O7086	O	0.635145	0.460387	0.767101
	O7087	O	0.744586	0.459704	0.748027
	O7088	O	0.700360	0.459957	0.774258
	O7089	O	0.747354	0.209044	0.817247
	O7090	O	0.628302	0.376354	0.841094
	O7091	O	0.754131	0.125454	0.743569
	C7092	C	0.728915	0.215197	0.813879
	C7093	C	0.733596	0.125095	0.814191
	C7094	C	0.728883	0.035314	0.813842
	C7095	C	0.719744	0.035491	0.813352
	C7096	C	0.715066	0.125561	0.813155
	C7097	C	0.719775	0.215403	0.813438
	C7098	C	0.705227	0.125518	0.810531
	C7099	C	0.743464	0.124889	0.816470
	C7100	C	0.678383	0.126331	0.813040
	C7101	C	0.668977	0.126174	0.819310
	C7102	C	0.664401	0.216147	0.821624
	C7103	C	0.655530	0.216173	0.825878
	C7104	C	0.650950	0.126289	0.828068
	C7105	C	0.655529	0.036338	0.825731
	C7106	C	0.664390	0.036430	0.821446
	C7107	C	0.641517	0.126225	0.834123
	C7108	C	0.677262	0.376305	0.774151
	C7109	C	0.667402	0.376378	0.771718
	C7110	C	0.662710	0.466207	0.771422
	C7111	C	0.653565	0.466071	0.770818
	C7112	C	0.648895	0.376108	0.770540
	C7113	C	0.653587	0.286233	0.770994
	C7114	C	0.662734	0.286506	0.771578
	C7115	C	0.639034	0.376390	0.768155
	C7116	C	0.704037	0.375905	0.771742
	C7117	C	0.713462	0.376103	0.765609
	C7118	C	0.718023	0.286122	0.763330
	C7119	C	0.726905	0.286071	0.759003
	C7120	C	0.731459	0.376018	0.756664
	C7121	C	0.726892	0.466030	0.758913
	C7122	C	0.718010	0.466130	0.763254
	C7123	C	0.740900	0.375806	0.750548
	H7124	H	0.730332	0.215904	0.757508
	H7125	H	0.714613	0.216033	0.765036
	H7126	H	0.732459	0.285196	0.814027
	H7127	H	0.716264	0.285749	0.813218
	H7128	H	0.690302	0.126322	0.764206
	H7129	H	0.692238	0.375459	0.820530
	H7130	H	0.627696	0.376574	0.826535
	H7131	H	0.754519	0.124936	0.758079
	H7132	H	0.666272	0.216457	0.771955
	H7133	H	0.650093	0.216080	0.770899
	H7134	H	0.652097	0.286251	0.827521
	H7135	H	0.667846	0.286136	0.820025
	H7136	H	0.650040	0.536167	0.770532
	H7137	H	0.666210	0.536100	0.771609
	H7138	H	0.667834	-0.033609	0.819710
	H7139	H	0.652084	-0.033746	0.827302
	H7140	H	0.716217	-0.034401	0.813091
	H7141	H	0.732395	-0.035041	0.813917
	H7142	H	0.714616	0.536336	0.764942
	H7143	H	0.730321	0.536181	0.757345
	Al7144	Al	0.694945	-0.499351	0.897301
	Al7145	Al	0.694936	-0.249566	0.897231
	Al7146	Al	0.628726	-0.248879	0.854914
	Al7147	Al	0.628709	-0.498377	0.854691
	O7148	O	0.705078	-0.458662	0.914480
	O7149	O	0.694504	-0.374495	0.883587
	O7150	O	0.695333	-0.124590	0.910834
	O7151	O	0.751054	-0.458567	0.923308
	O7152	O	0.685834	-0.458345	0.915534
	O7153	O	0.641600	-0.458328	0.941530
	O7154	O	0.685794	-0.290351	0.915385
	O7155	O	0.684863	-0.208507	0.879917
	O7156	O	0.638849	-0.208020	0.872081
	O7157	O	0.705034	-0.290295	0.914525
	O7158	O	0.704063	-0.208895	0.879171
	O7159	O	0.748311	-0.208840	0.852877
	O7160	O	0.641564	-0.290064	0.941581
	O7161	O	0.684861	-0.040158	0.880019
	O7162	O	0.638868	-0.039631	0.872047
	O7163	O	0.748326	-0.040602	0.852991
	O7164	O	0.704017	-0.040623	0.878913
	O7165	O	0.750973	-0.290300	0.923605
	O7166	O	0.632094	-0.123809	0.946217
	O7167	O	0.757793	-0.374370	0.848386
	C7168	C	0.732590	-0.284739	0.919643
	C7169	C	0.737280	-0.374670	0.919996
	C7170	C	0.732593	-0.464452	0.919555
	C7171	C	0.723450	-0.464530	0.918790
	C7172	C	0.718761	-0.374478	0.918390
	C7173	C	0.723456	-0.284637	0.918860
	C7174	C	0.708934	-0.374500	0.915625
	C7175	C	0.747131	-0.374703	0.922430
	C7176	C	0.682130	-0.374376	0.918036
	C7177	C	0.672706	-0.374381	0.924206
	C7178	C	0.668143	-0.284370	0.926493
	C7179	C	0.659262	-0.284335	0.930734
	C7180	C	0.654707	-0.374251	0.932918
	C7181	C	0.659287	-0.464245	0.930786
	C7182	C	0.668166	-0.464389	0.926537
	C7183	C	0.645278	-0.374067	0.939057
	C7184	C	0.680966	-0.124320	0.878911
	C7185	C	0.671122	-0.124248	0.876616
	C7186	C	0.666419	-0.034234	0.876317
	C7187	C	0.657280	-0.034118	0.875761
	C7188	C	0.652590	-0.124137	0.875501
	C7189	C	0.657288	-0.214274	0.875749
	C7190	C	0.666438	-0.214413	0.876295
	C7191	C	0.642735	-0.124001	0.873115
	C7192	C	0.707749	-0.124755	0.876612
	C7193	C	0.717178	-0.124684	0.870547
	C7194	C	0.721764	-0.214517	0.868223
	C7195	C	0.730639	-0.214644	0.863926
	C7196	C	0.735215	-0.124772	0.861737
	C7197	C	0.730631	-0.034953	0.864047
	C7198	C	0.721764	-0.034785	0.868332
	C7199	C	0.744619	-0.124772	0.855480
	H7200	H	0.734046	-0.284648	0.862118
	H7201	H	0.718301	-0.284310	0.869673
	H7202	H	0.736108	-0.214694	0.919893
	H7203	H	0.719941	-0.214736	0.918448
	H7204	H	0.693784	-0.374799	0.869003
	H7205	H	0.695839	-0.124564	0.925468
	H7206	H	0.631509	-0.123578	0.931682
	H7207	H	0.758389	-0.373746	0.862962
	H7208	H	0.669967	-0.284408	0.876496
	H7209	H	0.653738	-0.284045	0.875547
	H7210	H	0.655827	-0.214085	0.932280
	H7211	H	0.671549	-0.214031	0.924770
	H7212	H	0.653768	0.036162	0.875649
	H7213	H	0.669934	0.035944	0.876595
	H7214	H	0.671577	-0.534441	0.924845
	H7215	H	0.655871	-0.534494	0.932389
	H7216	H	0.719946	-0.534444	0.918363
	H7217	H	0.736133	-0.534420	0.919733
	H7218	H	0.718322	0.035168	0.869892
	H7219	H	0.734061	0.035111	0.862306
	Al7220	Al	0.694955	0.000405	0.897215
	Al7221	Al	0.694926	0.250780	0.897323
	Al7222	Al	0.628750	0.251571	0.854749
	Al7223	Al	0.628731	0.001180	0.854880
	O7224	O	0.705042	0.041279	0.914458
	O7225	O	0.694525	0.125628	0.883671
	O7226	O	0.695309	0.375854	0.910926
	O7227	O	0.751000	0.040479	0.923682
	O7228	O	0.685790	0.041528	0.915398
	O7229	O	0.641618	0.041736	0.941750
	O7230	O	0.685764	0.209887	0.915370
	O7231	O	0.684852	0.291678	0.879949
	O7232	O	0.638850	0.292138	0.871926
	O7233	O	0.705008	0.209526	0.914499
	O7234	O	0.704105	0.291659	0.879352
	O7235	O	0.748244	0.291133	0.852771
	O7236	O	0.641558	0.209794	0.941565
	O7237	O	0.684814	0.459809	0.880156
	O7238	O	0.638814	0.460363	0.871914
	O7239	O	0.748278	0.459156	0.852848
	O7240	O	0.704060	0.459714	0.879143
	O7241	O	0.751023	0.209221	0.923472
	O7242	O	0.632058	0.375900	0.946038
	O7243	O	0.757796	0.125556	0.848309
	C7244	C	0.732599	0.215110	0.919458
	C7245	C	0.737287	0.125086	0.920095
	C7246	C	0.732599	0.035166	0.919758
	C7247	C	0.723463	0.035448	0.918943
	C7248	C	0.718767	0.125408	0.918347
	C7249	C	0.723464	0.215174	0.918702
	C7250	C	0.708910	0.125453	0.915682
	C7251	C	0.747143	0.124967	0.922456
	C7252	C	0.682109	0.125673	0.917935
	C7253	C	0.672689	0.125796	0.924210
	C7254	C	0.668135	0.215728	0.926457
	C7255	C	0.659268	0.215853	0.930770
	C7256	C	0.654722	0.126028	0.933077
	C7257	C	0.659282	0.036008	0.930887
	C7258	C	0.668148	0.035943	0.926562
	C7259	C	0.645261	0.125792	0.939148
	C7260	C	0.680970	0.375676	0.879016
	C7261	C	0.671087	0.376015	0.876715
	C7262	C	0.666401	0.466096	0.876509
	C7263	C	0.657271	0.466157	0.875950
	C7264	C	0.652580	0.376266	0.875495
	C7265	C	0.657260	0.286331	0.875752
	C7266	C	0.666393	0.286170	0.876289
	C7267	C	0.642709	0.376383	0.872978
	C7268	C	0.707777	0.375714	0.876800
	C7269	C	0.717190	0.375611	0.870523
	C7270	C	0.721764	0.285715	0.868345
	C7271	C	0.730654	0.285307	0.864047
	C7272	C	0.735190	0.375132	0.861685
	C7273	C	0.730632	0.465016	0.863969
	C7274	C	0.721737	0.465369	0.868246
	C7275	C	0.744591	0.375321	0.855403
	H7276	H	0.734030	0.215170	0.862334
	H7277	H	0.718345	0.215761	0.869901
	H7278	H	0.736144	0.284909	0.919630
	H7279	H	0.719909	0.285327	0.918341
	H7280	H	0.693885	0.125870	0.869216
	H7281	H	0.695808	0.376641	0.925501
	H7282	H	0.631396	0.375587	0.931469
	H7283	H	0.758227	0.125671	0.862797
	H7284	H	0.669917	0.216167	0.876438
	H7285	H	0.653755	0.216212	0.875506
	H7286	H	0.655863	0.286158	0.932425
	H7287	H	0.671586	0.285436	0.924880
	H7288	H	0.653742	0.536319	0.875866
	H7289	H	0.669938	0.536267	0.876805
	H7290	H	0.671575	-0.034154	0.925048
	H7291	H	0.655872	-0.033797	0.932645
	H7292	H	0.719919	-0.034444	0.918863
	H7293	H	0.736102	-0.034941	0.920102
	H7294	H	0.718325	0.535687	0.869742
	H7295	H	0.734048	0.534975	0.862150
	Al7296	Al	0.812500	-0.500480	0.062391
	Al7297	Al	0.812468	-0.250400	0.062379
	Al7298	Al	0.760680	-0.249559	-0.057593
	Al7299	Al	0.760705	-0.500511	-0.057805
	O7300	O	0.820560	-0.459715	0.085186
	O7301	O	0.813223	-0.375307	0.049285
	O7302	O	0.811706	-0.125456	0.075447
	O7303	O	0.855466	-0.459808	0.161636
	O7304	O	0.802543	-0.459661	0.077055
	O7305	O	0.759868	-0.459583	0.110257
	O7306	O	0.802539	-0.291226	0.077120
	O7307	O	0.804447	-0.209349	0.039564
	O7308	O	0.769451	-0.208833	-0.036592
	O7309	O	0.820541	-0.291537	0.085138
	O7310	O	0.822428	-0.209587	0.047675
	O7311	O	0.865083	-0.209603	0.014647
	O7312	O	0.759940	-0.291126	0.110415
	O7313	O	0.804481	-0.041186	0.039477
	O7314	O	0.769453	-0.041040	-0.036558
	O7315	O	0.865008	-0.041270	0.014307
	O7316	O	0.822410	-0.041294	0.047670
	O7317	O	0.855478	-0.291804	0.161607
	O7318	O	0.750774	-0.124901	0.112053
	O7319	O	0.874200	-0.375773	0.012832
	C7320	C	0.841343	-0.286816	0.131334
	C7321	C	0.844938	-0.375860	0.139060
	C7322	C	0.841367	-0.464763	0.131248
	C7323	C	0.834429	-0.464498	0.116008
	C7324	C	0.830856	-0.375451	0.108235
	C7325	C	0.834403	-0.286544	0.116095
	C7326	C	0.823479	-0.375403	0.091590
	C7327	C	0.852471	-0.375683	0.155354
	C7328	C	0.798955	-0.375478	0.079805
	C7329	C	0.789837	-0.375426	0.087259
	C7330	C	0.785498	-0.286275	0.090620
	C7331	C	0.776919	-0.286346	0.097075
	C7332	C	0.772588	-0.375643	0.100168
	C7333	C	0.776912	-0.464796	0.096655
	C7334	C	0.785469	-0.464627	0.090203
	C7335	C	0.763472	-0.375628	0.107554
	C7336	C	0.801560	-0.125171	0.033147
	C7337	C	0.794146	-0.125208	0.016501
	C7338	C	0.790606	-0.036319	0.008592
	C7339	C	0.783654	-0.036353	-0.006534
	C7340	C	0.780030	-0.125293	-0.014119
	C7341	C	0.783604	-0.214209	-0.006317
	C7342	C	0.790555	-0.214158	0.008814
	C7343	C	0.772472	-0.125045	-0.030339
	C7344	C	0.826016	-0.125382	0.044974
	C7345	C	0.835135	-0.125591	0.037642
	C7346	C	0.839479	-0.214883	0.034499
	C7347	C	0.848022	-0.214836	0.027922
	C7348	C	0.852353	-0.125672	0.024587
	C7349	C	0.847990	-0.036466	0.027656
	C7350	C	0.839457	-0.036527	0.034241
	C7351	C	0.861466	-0.125484	0.017215
	H7352	H	0.851372	-0.283630	0.025493
	H7353	H	0.836153	-0.283638	0.037231
	H7354	H	0.843991	-0.217893	0.137272
	H7355	H	0.831754	-0.217419	0.110155
	H7356	H	0.814083	-0.375154	0.035007
	H7357	H	0.810839	-0.126165	0.089809
	H7358	H	0.751667	-0.124946	0.097780
	H7359	H	0.873257	-0.375995	0.027158
	H7360	H	0.793240	-0.282856	0.014814
	H7361	H	0.780882	-0.282819	-0.012174
	H7362	H	0.773571	-0.217683	0.099758
	H7363	H	0.788843	-0.217380	0.088039
	H7364	H	0.780967	0.032495	-0.012524
	H7365	H	0.793307	0.032541	0.014403
	H7366	H	0.788719	-0.533528	0.087255
	H7367	H	0.773539	-0.533558	0.098983
	H7368	H	0.831802	-0.533739	0.110029
	H7369	H	0.844075	-0.533721	0.137073
	H7370	H	0.836130	0.032376	0.036788
	H7371	H	0.851284	0.032534	0.024934
	Al7372	Al	0.812486	-0.000230	0.062447
	Al7373	Al	0.812497	0.249778	0.062462
	Al7374	Al	0.760670	0.250336	-0.057790
	Al7375	Al	0.760701	-0.000698	-0.057559
	O7376	O	0.820525	0.040135	0.085276
	O7377	O	0.813229	0.124832	0.049376
	O7378	O	0.811724	0.374672	0.075547
	O7379	O	0.855513	0.039679	0.161475
	O7380	O	0.802556	0.040250	0.077228
	O7381	O	0.759894	0.041219	0.110342
	O7382	O	0.802579	0.208655	0.077282
	O7383	O	0.804411	0.290869	0.039602
	O7384	O	0.769462	0.290729	-0.036687
	O7385	O	0.820509	0.208850	0.085288
	O7386	O	0.822407	0.289964	0.047577
	O7387	O	0.865042	0.289931	0.014625
	O7388	O	0.759883	0.209628	0.110226
	O7389	O	0.804444	0.458830	0.039580
	O7390	O	0.769446	0.458626	-0.036725
	O7391	O	0.865071	0.458351	0.014668
	O7392	O	0.822417	0.458417	0.047534
	O7393	O	0.855468	0.207823	0.161618
	O7394	O	0.750676	0.374924	0.111931
	O7395	O	0.874235	0.124346	0.012858
	C7396	C	0.841301	0.213099	0.131469
	C7397	C	0.844910	0.123776	0.139122
	C7398	C	0.841372	0.034814	0.131235
	C7399	C	0.834439	0.035095	0.116050
	C7400	C	0.830831	0.124417	0.108388
	C7401	C	0.834357	0.213514	0.116281
	C7402	C	0.823425	0.124416	0.091714
	C7403	C	0.852487	0.123866	0.155359
	C7404	C	0.798991	0.124641	0.080014
	C7405	C	0.789866	0.124771	0.087356
	C7406	C	0.785520	0.214031	0.090633
	C7407	C	0.776960	0.214079	0.097035
	C7408	C	0.772610	0.124894	0.100215
	C7409	C	0.776944	0.035467	0.096926
	C7410	C	0.785512	0.035369	0.090484
	C7411	C	0.763473	0.125255	0.107507
	C7412	C	0.801509	0.374985	0.033192
	C7413	C	0.794100	0.375049	0.016492
	C7414	C	0.790535	0.463858	0.008680
	C7415	C	0.783588	0.463717	-0.006469
	C7416	C	0.779993	0.374688	-0.014129
	C7417	C	0.783587	0.286077	-0.006336
	C7418	C	0.790525	0.286027	0.008824
	C7419	C	0.772449	0.374818	-0.030487
	C7420	C	0.825982	0.374263	0.044813
	C7421	C	0.835116	0.374200	0.037469
	C7422	C	0.839474	0.284973	0.034451
	C7423	C	0.848033	0.285245	0.028028
	C7424	C	0.852359	0.374572	0.024704
	C7425	C	0.847998	0.463771	0.027791
	C7426	C	0.839426	0.463593	0.034169
	C7427	C	0.861487	0.374285	0.017365
	H7428	H	0.851384	0.216447	0.025557
	H7429	H	0.836178	0.216277	0.037165
	H7430	H	0.843956	0.281975	0.137579
	H7431	H	0.831652	0.282487	0.110433
	H7432	H	0.813987	0.125131	0.035005
	H7433	H	0.810704	0.374436	0.089754
	H7434	H	0.751653	0.374620	0.097664
	H7435	H	0.873520	0.124764	0.027257
	H7436	H	0.793209	0.217205	0.014798
	H7437	H	0.780894	0.217031	-0.012190
	H7438	H	0.773641	0.283135	0.099551
	H7439	H	0.788837	0.283113	0.088131
	H7440	H	0.780923	0.532480	-0.012381
	H7441	H	0.793253	0.532769	0.014541
	H7442	H	0.788868	-0.033082	0.087839
	H7443	H	0.773584	-0.033246	0.099351
	H7444	H	0.831763	-0.033814	0.110006
	H7445	H	0.844038	-0.034156	0.137170
	H7446	H	0.836062	0.532282	0.036681
	H7447	H	0.851307	0.532586	0.025091
	Al7448	Al	0.801749	-0.501070	0.244988
	Al7449	Al	0.801752	-0.250260	0.245135
	Al7450	Al	0.749994	-0.250122	0.125103
	Al7451	Al	0.749933	-0.500048	0.125006
	O7452	O	0.811500	-0.460749	0.263642
	O7453	O	0.801965	-0.375701	0.231590
	O7454	O	0.801865	-0.125961	0.258668
	O7455	O	0.857422	-0.459481	0.272678
	O7456	O	0.792294	-0.459886	0.261567
	O7457	O	0.748797	-0.459885	0.290746
	O7458	O	0.792318	-0.291344	0.261680
	O7459	O	0.792948	-0.210053	0.224198
	O7460	O	0.758032	-0.209080	0.147919
	O7461	O	0.811452	-0.292407	0.263875
	O7462	O	0.811241	-0.210071	0.228170
	O7463	O	0.854772	-0.210050	0.198968
	O7464	O	0.748733	-0.291719	0.290654
	O7465	O	0.792984	-0.041896	0.224136
	O7466	O	0.758068	-0.040658	0.147947
	O7467	O	0.854747	-0.041583	0.198828
	O7468	O	0.811221	-0.041607	0.228018
	O7469	O	0.857450	-0.291211	0.272608
	O7470	O	0.739484	-0.125324	0.294250
	O7471	O	0.864295	-0.376100	0.195994
	C7472	C	0.839003	-0.285571	0.268563
	C7473	C	0.843720	-0.375308	0.269069
	C7474	C	0.839063	-0.465465	0.268554
	C7475	C	0.829924	-0.466081	0.267785
	C7476	C	0.825206	-0.376374	0.267415
	C7477	C	0.829866	-0.286228	0.267801
	C7478	C	0.815347	-0.376475	0.264906
	C7479	C	0.853564	-0.375305	0.271535
	C7480	C	0.788640	-0.375511	0.264030
	C7481	C	0.779327	-0.375554	0.270409
	C7482	C	0.774822	-0.285786	0.272769
	C7483	C	0.766088	-0.285785	0.278061
	C7484	C	0.761668	-0.375429	0.281041
	C7485	C	0.766169	-0.465183	0.278438
	C7486	C	0.774897	-0.465198	0.273126
	C7487	C	0.752378	-0.375696	0.287952
	C7488	C	0.789973	-0.125974	0.217950
	C7489	C	0.782409	-0.125626	0.201722
	C7490	C	0.778827	-0.036436	0.194082
	C7491	C	0.771904	-0.036404	0.178860
	C7492	C	0.768368	-0.125452	0.171002
	C7493	C	0.771912	-0.214731	0.178719
	C7494	C	0.778837	-0.214784	0.193960
	C7495	C	0.760972	-0.125293	0.154284
	C7496	C	0.814842	-0.125987	0.225350
	C7497	C	0.824095	-0.125863	0.218390
	C7498	C	0.828582	-0.215535	0.215675
	C7499	C	0.837311	-0.215522	0.210391
	C7500	C	0.841767	-0.125815	0.207765
	C7501	C	0.837276	-0.035890	0.210285
	C7502	C	0.828529	-0.035842	0.215566
	C7503	C	0.851085	-0.125746	0.201350
	H7504	H	0.840700	-0.285122	0.208397
	H7505	H	0.825232	-0.285135	0.217794
	H7506	H	0.842494	-0.215257	0.268784
	H7507	H	0.826294	-0.216287	0.267439
	H7508	H	0.802405	-0.375412	0.217175
	H7509	H	0.802448	-0.126313	0.273128
	H7510	H	0.739920	-0.125918	0.279765
	H7511	H	0.864679	-0.375773	0.210520
	H7512	H	0.781537	-0.283950	0.199778
	H7513	H	0.769250	-0.283816	0.172719
	H7514	H	0.762649	-0.215949	0.279952
	H7515	H	0.778168	-0.216149	0.270408
	H7516	H	0.769227	0.032819	0.172920
	H7517	H	0.781490	0.032536	0.200086
	H7518	H	0.778288	-0.534952	0.271089
	H7519	H	0.762818	-0.535141	0.280610
	H7520	H	0.826431	-0.536392	0.267479
	H7521	H	0.842620	-0.535269	0.268734
	H7522	H	0.825116	0.033785	0.217633
	H7523	H	0.840667	0.033506	0.208202
	Al7524	Al	0.801785	-0.001143	0.245218
	Al7525	Al	0.801748	0.249627	0.244911
	Al7526	Al	0.749927	0.249899	0.124994
	Al7527	Al	0.749986	0.000031	0.125127
	O7528	O	0.811473	0.040193	0.263875
	O7529	O	0.801985	0.124339	0.231541
	O7530	O	0.801787	0.374137	0.258447
	O7531	O	0.857411	0.040562	0.272680
	O7532	O	0.792258	0.039957	0.261506
	O7533	O	0.748705	0.040774	0.290576
	O7534	O	0.792272	0.208297	0.261497
	O7535	O	0.792936	0.290508	0.223986
	O7536	O	0.757923	0.291223	0.147921
	O7537	O	0.811450	0.208443	0.263815
	O7538	O	0.811220	0.289699	0.227912
	O7539	O	0.854806	0.289687	0.199129
	O7540	O	0.748789	0.209247	0.290988
	O7541	O	0.792939	0.458463	0.223990
	O7542	O	0.757977	0.459213	0.147813
	O7543	O	0.854802	0.458244	0.199165
	O7544	O	0.811165	0.458185	0.227844
	O7545	O	0.857405	0.208771	0.272665
	O7546	O	0.739494	0.374607	0.294380
	O7547	O	0.864354	0.123953	0.195971
	C7548	C	0.838994	0.214295	0.268483
	C7549	C	0.843699	0.124716	0.268823
	C7550	C	0.839027	0.034818	0.268387
	C7551	C	0.829894	0.034615	0.267645
	C7552	C	0.825184	0.124214	0.267398
	C7553	C	0.829858	0.214075	0.267756
	C7554	C	0.815350	0.124325	0.264903
	C7555	C	0.853535	0.124708	0.271518
	C7556	C	0.788608	0.124110	0.264013
	C7557	C	0.779299	0.124470	0.270451
	C7558	C	0.774830	0.214217	0.273022
	C7559	C	0.766095	0.214349	0.278323
	C7560	C	0.761613	0.124615	0.281066
	C7561	C	0.766079	0.034896	0.278409
	C7562	C	0.774806	0.034813	0.273098
	C7563	C	0.752368	0.124905	0.288097
	C7564	C	0.789931	0.374545	0.217776
	C7565	C	0.782350	0.374709	0.201627
	C7566	C	0.778801	0.463859	0.193860
	C7567	C	0.771844	0.463804	0.178673
	C7568	C	0.768238	0.375070	0.170989
	C7569	C	0.771796	0.286128	0.178751
	C7570	C	0.778758	0.285871	0.193921
	C7571	C	0.760854	0.375109	0.154319
	C7572	C	0.814800	0.373902	0.225136
	C7573	C	0.824095	0.374156	0.218330
	C7574	C	0.828582	0.284147	0.215594
	C7575	C	0.837344	0.284072	0.210408
	C7576	C	0.841806	0.374032	0.207882
	C7577	C	0.837319	0.463943	0.210598
	C7578	C	0.828567	0.464003	0.215745
	C7579	C	0.851134	0.374009	0.201550
	H7580	H	0.840790	0.214521	0.208316
	H7581	H	0.825175	0.214279	0.217647
	H7582	H	0.842521	0.284317	0.268845
	H7583	H	0.826329	0.283745	0.267468
	H7584	H	0.802391	0.123707	0.217015
	H7585	H	0.802046	0.373764	0.273002
	H7586	H	0.739871	0.373697	0.279866
	H7587	H	0.864795	0.123445	0.210461
	H7588	H	0.781447	0.216825	0.199800
	H7589	H	0.769096	0.216967	0.172880
	H7590	H	0.762716	0.284301	0.280390
	H7591	H	0.778230	0.283690	0.270975
	H7592	H	0.769164	0.532905	0.172681
	H7593	H	0.781520	0.532986	0.199650
	H7594	H	0.778226	-0.034655	0.271079
	H7595	H	0.762686	-0.034863	0.280568
	H7596	H	0.826366	-0.035350	0.267294
	H7597	H	0.842568	-0.034836	0.268671
	H7598	H	0.825181	0.533877	0.217860
	H7599	H	0.840705	0.533569	0.208684
	Al7600	Al	0.805077	-0.499989	0.352445
	Al7601	Al	0.805016	-0.250109	0.352499
	Al7602	Al	0.739281	-0.250780	0.307729
	Al7603	Al	0.739269	-0.499950	0.307700
	O7604	O	0.815148	-0.459032	0.369752
	O7605	O	0.804645	-0.375074	0.338884
	O7606	O	0.805452	-0.125282	0.366090
	O7607	O	0.861191	-0.458878	0.377437
	O7608	O	0.795872	-0.459652	0.370464
	O7609	O	0.751637	-0.459076	0.396794
	O7610	O	0.795928	-0.291354	0.370889
	O7611	O	0.794913	-0.209057	0.335378
	O7612	O	0.749012	-0.209490	0.326295
	O7613	O	0.815142	-0.290803	0.369605
	O7614	O	0.814072	-0.208851	0.334032
	O7615	O	0.858349	-0.209610	0.308051
	O7616	O	0.751604	-0.290888	0.396665
	O7617	O	0.794919	-0.040640	0.335389
	O7618	O	0.748940	-0.041066	0.326478
	O7619	O	0.858377	-0.041367	0.308155
	O7620	O	0.814147	-0.040845	0.334321
	O7621	O	0.861146	-0.290442	0.377887
	O7622	O	0.742124	-0.124761	0.401339
	O7623	O	0.867872	-0.375545	0.303559
	C7624	C	0.842724	-0.284708	0.374032
	C7625	C	0.847430	-0.374721	0.374271
	C7626	C	0.842728	-0.464568	0.373848
	C7627	C	0.833590	-0.464624	0.373350
	C7628	C	0.828891	-0.374738	0.373061
	C7629	C	0.833580	-0.284602	0.373475
	C7630	C	0.819042	-0.374909	0.370763
	C7631	C	0.857265	-0.374799	0.376637
	C7632	C	0.792198	-0.375502	0.373186
	C7633	C	0.782764	-0.375340	0.379218
	C7634	C	0.778166	-0.285217	0.381348
	C7635	C	0.769278	-0.285108	0.385613
	C7636	C	0.764734	-0.374868	0.388034
	C7637	C	0.769321	-0.464818	0.385823
	C7638	C	0.778209	-0.465058	0.381561
	C7639	C	0.755323	-0.374936	0.394159
	C7640	C	0.791040	-0.124737	0.334178
	C7641	C	0.781200	-0.124695	0.331504
	C7642	C	0.776505	-0.034811	0.331276
	C7643	C	0.767366	-0.034928	0.330554
	C7644	C	0.762700	-0.124916	0.329984
	C7645	C	0.767397	-0.214783	0.330145
	C7646	C	0.776532	-0.214712	0.330862
	C7647	C	0.752859	-0.125132	0.327509
	C7648	C	0.817806	-0.124915	0.331633
	C7649	C	0.827217	-0.125166	0.325509
	C7650	C	0.831795	-0.215014	0.323313
	C7651	C	0.840672	-0.215063	0.319022
	C7652	C	0.845233	-0.125113	0.316691
	C7653	C	0.840650	-0.035229	0.318859
	C7654	C	0.831776	-0.035213	0.323134
	C7655	C	0.854655	-0.125224	0.310568
	H7656	H	0.844099	-0.285347	0.317544
	H7657	H	0.828374	-0.284898	0.325045
	H7658	H	0.846258	-0.214614	0.374185
	H7659	H	0.830032	-0.214490	0.373261
	H7660	H	0.804056	-0.375004	0.324378
	H7661	H	0.806101	-0.125201	0.380631
	H7662	H	0.741573	-0.124654	0.386761
	H7663	H	0.868389	-0.375540	0.318078
	H7664	H	0.780069	-0.284796	0.331062
	H7665	H	0.763858	-0.285004	0.329756
	H7666	H	0.765832	-0.214998	0.387165
	H7667	H	0.781558	-0.215164	0.379697
	H7668	H	0.763820	0.034873	0.330517
	H7669	H	0.780017	0.035244	0.331834
	H7670	H	0.781655	-0.535226	0.380107
	H7671	H	0.765939	-0.535275	0.387559
	H7672	H	0.830079	-0.534794	0.372975
	H7673	H	0.846277	-0.534622	0.373832
	H7674	H	0.828362	0.034861	0.324690
	H7675	H	0.844079	0.034657	0.317166
	Al7676	Al	0.805027	-0.000109	0.352518
	Al7677	Al	0.805041	0.249935	0.352443
	Al7678	Al	0.739301	0.249169	0.307971
	Al7679	Al	0.739266	-0.000068	0.307685
	O7680	O	0.815156	0.040731	0.369634
	O7681	O	0.804662	0.125212	0.338872
	O7682	O	0.805477	0.375077	0.366114
	O7683	O	0.861137	0.040778	0.377754
	O7684	O	0.795891	0.041195	0.370546
	O7685	O	0.751643	0.040715	0.396680
	O7686	O	0.795901	0.209251	0.370589
	O7687	O	0.794975	0.290850	0.335232
	O7688	O	0.748998	0.290353	0.326673
	O7689	O	0.815093	0.208868	0.369797
	O7690	O	0.814192	0.291223	0.334277
	O7691	O	0.858402	0.290737	0.308024
	O7692	O	0.751623	0.208850	0.396633
	O7693	O	0.794983	0.459247	0.335251
	O7694	O	0.748957	0.458848	0.326626
	O7695	O	0.858440	0.458798	0.308197
	O7696	O	0.814220	0.459419	0.334407
	O7697	O	0.861152	0.208986	0.377742
	O7698	O	0.742139	0.375176	0.401305
	O7699	O	0.867922	0.124548	0.303475
	C7700	C	0.842683	0.215198	0.373986
	C7701	C	0.847395	0.125307	0.374319
	C7702	C	0.842719	0.035293	0.373970
	C7703	C	0.833584	0.035233	0.373452
	C7704	C	0.828867	0.125160	0.373143
	C7705	C	0.833552	0.215129	0.373499
	C7706	C	0.819000	0.124898	0.370821
	C7707	C	0.857263	0.125044	0.376724
	C7708	C	0.792199	0.125268	0.373041
	C7709	C	0.782789	0.125437	0.379272
	C7710	C	0.778172	0.215171	0.381408
	C7711	C	0.769294	0.215140	0.385695
	C7712	C	0.764759	0.125083	0.388063
	C7713	C	0.769368	0.035381	0.385880
	C7714	C	0.778236	0.035464	0.381569
	C7715	C	0.755332	0.124847	0.394198
	C7716	C	0.791107	0.375101	0.334102
	C7717	C	0.781254	0.374984	0.331471
	C7718	C	0.776542	0.464826	0.331274
	C7719	C	0.767395	0.464776	0.330554
	C7720	C	0.762727	0.374819	0.329965
	C7721	C	0.767449	0.284907	0.330109
	C7722	C	0.776593	0.284966	0.330811
	C7723	C	0.752856	0.374779	0.327649
	C7724	C	0.817874	0.375198	0.331786
	C7725	C	0.827271	0.375454	0.325477
	C7726	C	0.831884	0.285598	0.323565
	C7727	C	0.840768	0.285380	0.319253
	C7728	C	0.845306	0.375164	0.316663
	C7729	C	0.840716	0.465129	0.318734
	C7730	C	0.831832	0.465295	0.323057
	C7731	C	0.854713	0.374777	0.310576
	H7732	H	0.844224	0.215236	0.317823
	H7733	H	0.828501	0.215334	0.325396
	H7734	H	0.846197	0.285129	0.374102
	H7735	H	0.830017	0.285045	0.373297
	H7736	H	0.804068	0.125309	0.324374
	H7737	H	0.806040	0.375314	0.380647
	H7738	H	0.741591	0.375057	0.386779
	H7739	H	0.868552	0.124965	0.317957
	H7740	H	0.780132	0.214772	0.330931
	H7741	H	0.763936	0.214741	0.329757
	H7742	H	0.765867	0.285367	0.387288
	H7743	H	0.781593	0.285538	0.379681
	H7744	H	0.763852	0.534893	0.330565
	H7745	H	0.780040	0.534961	0.331770
	H7746	H	0.781649	-0.034908	0.380056
	H7747	H	0.765963	-0.034759	0.387669
	H7748	H	0.830056	-0.034678	0.373212
	H7749	H	0.846268	-0.034530	0.374037
	H7750	H	0.828367	0.535320	0.324495
	H7751	H	0.844103	0.535432	0.316844
	Al7752	Al	0.808774	-0.499759	0.457486
	Al7753	Al	0.808789	-0.249706	0.457311
	Al7754	Al	0.742509	-0.250210	0.414863
	Al7755	Al	0.742526	-0.500068	0.414987
	O7756	O	0.818887	-0.458639	0.474600
	O7757	O	0.808286	-0.374814	0.443806
	O7758	O	0.809218	-0.124455	0.470977
	O7759	O	0.864897	-0.458864	0.482722
	O7760	O	0.799641	-0.458856	0.475636
	O7761	O	0.755443	-0.459117	0.501953
	O7762	O	0.799618	-0.290482	0.475449
	O7763	O	0.798644	-0.209279	0.440226
	O7764	O	0.752683	-0.209948	0.431972
	O7765	O	0.818909	-0.290121	0.474503
	O7766	O	0.817926	-0.209310	0.439233
	O7767	O	0.862225	-0.208872	0.413347
	O7768	O	0.755398	-0.290814	0.501862
	O7769	O	0.798665	-0.041069	0.440037
	O7770	O	0.752617	-0.041618	0.432139
	O7771	O	0.862142	-0.040811	0.413024
	O7772	O	0.817856	-0.041285	0.438975
	O7773	O	0.864887	-0.290651	0.482618
	O7774	O	0.745853	-0.124770	0.506433
	O7775	O	0.871683	-0.375561	0.408393
	C7776	C	0.846444	-0.284693	0.478984
	C7777	C	0.851139	-0.374805	0.479378
	C7778	C	0.846456	-0.464884	0.478923
	C7779	C	0.837318	-0.464770	0.478355
	C7780	C	0.832623	-0.374740	0.478135
	C7781	C	0.837313	-0.284719	0.478422
	C7782	C	0.822773	-0.374506	0.475629
	C7783	C	0.861013	-0.374741	0.481530
	C7784	C	0.795927	-0.374481	0.478042
	C7785	C	0.786521	-0.374485	0.484268
	C7786	C	0.781923	-0.284612	0.486391
	C7787	C	0.773056	-0.284689	0.490809
	C7788	C	0.768524	-0.374643	0.493227
	C7789	C	0.773122	-0.464458	0.491055
	C7790	C	0.781984	-0.464369	0.486637
	C7791	C	0.759125	-0.375006	0.499450
	C7792	C	0.794764	-0.125099	0.439142
	C7793	C	0.784896	-0.125152	0.436742
	C7794	C	0.780175	-0.035414	0.436594
	C7795	C	0.771055	-0.035612	0.436107
	C7796	C	0.766375	-0.125511	0.435674
	C7797	C	0.771075	-0.215427	0.435777
	C7798	C	0.780207	-0.215191	0.436308
	C7799	C	0.756522	-0.125660	0.433129
	C7800	C	0.821608	-0.125190	0.436630
	C7801	C	0.831021	-0.124985	0.430422
	C7802	C	0.835608	-0.214909	0.428382
	C7803	C	0.844489	-0.215047	0.424138
	C7804	C	0.849050	-0.125229	0.421748
	C7805	C	0.844462	-0.035232	0.423777
	C7806	C	0.835583	-0.035117	0.428010
	C7807	C	0.858485	-0.124767	0.415616
	H7808	H	0.847922	-0.285064	0.422593
	H7809	H	0.832188	-0.284841	0.430184
	H7810	H	0.849970	-0.214716	0.479351
	H7811	H	0.833779	-0.214675	0.478428
	H7812	H	0.807478	-0.375100	0.429294
	H7813	H	0.809853	-0.125006	0.485540
	H7814	H	0.745372	-0.124939	0.491899
	H7815	H	0.872264	-0.376371	0.422870
	H7816	H	0.783749	-0.285164	0.436389
	H7817	H	0.767527	-0.285377	0.435427
	H7818	H	0.769621	-0.214694	0.492417
	H7819	H	0.785313	-0.214543	0.484576
	H7820	H	0.767523	0.034511	0.436000
	H7821	H	0.783694	0.034667	0.436947
	H7822	H	0.785393	-0.534448	0.484991
	H7823	H	0.769725	-0.534342	0.492810
	H7824	H	0.833778	-0.534610	0.478302
	H7825	H	0.849984	-0.534931	0.479254
	H7826	H	0.832189	0.035016	0.429537
	H7827	H	0.847879	0.034739	0.421994
	Al7828	Al	0.808759	0.000052	0.457386
	Al7829	Al	0.808800	0.250315	0.457356
	Al7830	Al	0.742527	0.250178	0.414872
	Al7831	Al	0.742511	0.000161	0.414924
	O7832	O	0.818928	0.041071	0.474395
	O7833	O	0.808336	0.125224	0.443723
	O7834	O	0.809234	0.375150	0.471038
	O7835	O	0.864938	0.041332	0.482660
	O7836	O	0.799648	0.040854	0.475604
	O7837	O	0.755425	0.041019	0.501849
	O7838	O	0.799684	0.208988	0.475601
	O7839	O	0.798702	0.291048	0.440106
	O7840	O	0.752718	0.290446	0.431852
	O7841	O	0.818958	0.209357	0.474473
	O7842	O	0.817938	0.290977	0.439363
	O7843	O	0.862173	0.291219	0.413163
	O7844	O	0.755419	0.209150	0.501843
	O7845	O	0.798648	0.459126	0.440233
	O7846	O	0.752640	0.458654	0.432112
	O7847	O	0.862072	0.459255	0.412747
	O7848	O	0.817872	0.459257	0.439210
	O7849	O	0.864867	0.209519	0.482995
	O7850	O	0.745880	0.375251	0.506501
	O7851	O	0.871727	0.124808	0.408455
	C7852	C	0.846487	0.215049	0.479124
	C7853	C	0.851174	0.125058	0.479296
	C7854	C	0.846487	0.035183	0.478936
	C7855	C	0.837339	0.034998	0.478232
	C7856	C	0.832663	0.125042	0.477896
	C7857	C	0.837341	0.214953	0.478452
	C7858	C	0.822809	0.125084	0.475395
	C7859	C	0.861018	0.125289	0.481726
	C7860	C	0.795980	0.125140	0.478095
	C7861	C	0.786544	0.125187	0.484359
	C7862	C	0.781980	0.215075	0.486621
	C7863	C	0.773103	0.215228	0.490931
	C7864	C	0.768562	0.125327	0.493231
	C7865	C	0.773130	0.035459	0.491066
	C7866	C	0.782007	0.035371	0.486754
	C7867	C	0.759121	0.125176	0.499302
	C7868	C	0.794797	0.374852	0.439147
	C7869	C	0.784923	0.375006	0.436748
	C7870	C	0.780226	0.464962	0.436477
	C7871	C	0.771088	0.464948	0.435904
	C7872	C	0.766411	0.374813	0.435497
	C7873	C	0.771116	0.284917	0.435751
	C7874	C	0.780247	0.284949	0.436322
	C7875	C	0.756550	0.374765	0.433083
	C7876	C	0.821593	0.375103	0.436723
	C7877	C	0.831013	0.375115	0.430576
	C7878	C	0.835580	0.285178	0.428455
	C7879	C	0.844463	0.285327	0.424091
	C7880	C	0.849004	0.375068	0.421687
	C7881	C	0.844437	0.464930	0.423828
	C7882	C	0.835566	0.464851	0.428198
	C7883	C	0.858423	0.375067	0.415446
	H7884	H	0.847905	0.215047	0.422508
	H7885	H	0.832205	0.214906	0.430168
	H7886	H	0.850004	0.285332	0.479478
	H7887	H	0.833827	0.284961	0.478305
	H7888	H	0.807738	0.124927	0.429093
	H7889	H	0.809964	0.374636	0.485461
	H7890	H	0.745296	0.374903	0.491958
	H7891	H	0.872415	0.125054	0.423047
	H7892	H	0.783799	0.215089	0.436294
	H7893	H	0.767628	0.214551	0.435413
	H7894	H	0.769701	0.285590	0.492648
	H7895	H	0.785417	0.285239	0.485065
	H7896	H	0.767526	0.534792	0.435754
	H7897	H	0.783753	0.535119	0.436573
	H7898	H	0.785449	-0.034826	0.485338
	H7899	H	0.769738	-0.034653	0.492877
	H7900	H	0.833823	-0.035239	0.477962
	H7901	H	0.850007	-0.035129	0.479155
	H7902	H	0.832121	0.534906	0.429713
	H7903	H	0.847831	0.535183	0.422095
	Al7904	Al	0.812503	-0.499564	0.562591
	Al7905	Al	0.812501	-0.249543	0.562661
	Al7906	Al	0.746260	-0.249675	0.520084
	Al7907	Al	0.746283	-0.499618	0.520019
	O7908	O	0.822608	-0.459360	0.579844
	O7909	O	0.812116	-0.374602	0.548951
	O7910	O	0.812991	-0.124554	0.576179
	O7911	O	0.868631	-0.459738	0.587776
	O7912	O	0.803361	-0.458637	0.580665
	O7913	O	0.759154	-0.458994	0.606971
	O7914	O	0.803374	-0.290213	0.580820
	O7915	O	0.802355	-0.208622	0.545510
	O7916	O	0.756393	-0.208554	0.537217
	O7917	O	0.822604	-0.291203	0.579843
	O7918	O	0.821659	-0.209042	0.544442
	O7919	O	0.865895	-0.208867	0.518100
	O7920	O	0.759098	-0.290776	0.606789
	O7921	O	0.802406	-0.040278	0.545340
	O7922	O	0.756388	-0.040356	0.537218
	O7923	O	0.865856	-0.040712	0.518012
	O7924	O	0.821611	-0.040771	0.544303
	O7925	O	0.868617	-0.291621	0.587735
	O7926	O	0.749600	-0.124213	0.611569
	O7927	O	0.875423	-0.374819	0.513449
	C7928	C	0.850188	-0.285760	0.583815
	C7929	C	0.854880	-0.375713	0.584258
	C7930	C	0.850194	-0.465390	0.584149
	C7931	C	0.841059	-0.465441	0.583621
	C7932	C	0.836357	-0.375563	0.583123
	C7933	C	0.841048	-0.285770	0.583289
	C7934	C	0.826491	-0.375268	0.580864
	C7935	C	0.864735	-0.375714	0.586651
	C7936	C	0.799684	-0.374526	0.583230
	C7937	C	0.790268	-0.374575	0.589482
	C7938	C	0.785673	-0.284636	0.591554
	C7939	C	0.776809	-0.284779	0.595868
	C7940	C	0.772258	-0.374693	0.598235
	C7941	C	0.776830	-0.464659	0.595957
	C7942	C	0.785700	-0.464567	0.591690
	C7943	C	0.762832	-0.374748	0.604377
	C7944	C	0.798492	-0.124281	0.544394
	C7945	C	0.788644	-0.124170	0.542027
	C7946	C	0.783929	-0.034291	0.541696
	C7947	C	0.774805	-0.034409	0.541096
	C7948	C	0.770115	-0.124408	0.540753
	C7949	C	0.774821	-0.214333	0.541084
	C7950	C	0.783956	-0.214236	0.541693
	C7951	C	0.760277	-0.124477	0.538279
	C7952	C	0.825321	-0.124829	0.541855
	C7953	C	0.834745	-0.124478	0.535687
	C7954	C	0.839335	-0.214489	0.533439
	C7955	C	0.848208	-0.214565	0.529143
	C7956	C	0.852761	-0.124677	0.526785
	C7957	C	0.848188	-0.034719	0.529164
	C7958	C	0.839315	-0.034628	0.533491
	C7959	C	0.862173	-0.124860	0.520573
	H7960	H	0.851653	-0.284642	0.527460
	H7961	H	0.835916	-0.284645	0.535052
	H7962	H	0.853725	-0.215635	0.583921
	H7963	H	0.837510	-0.215957	0.582982
	H7964	H	0.811584	-0.374466	0.534405
	H7965	H	0.813623	-0.123735	0.590737
	H7966	H	0.748935	-0.123748	0.596991
	H7967	H	0.876023	-0.375179	0.527994
	H7968	H	0.787511	-0.284240	0.541820
	H7969	H	0.771292	-0.284570	0.540810
	H7970	H	0.773395	-0.214741	0.597535
	H7971	H	0.789097	-0.214712	0.589901
	H7972	H	0.771232	0.035496	0.540862
	H7973	H	0.787458	0.035742	0.541860
	H7974	H	0.789165	-0.534612	0.590124
	H7975	H	0.773431	-0.534600	0.597695
	H7976	H	0.837560	-0.535586	0.583585
	H7977	H	0.853736	-0.535348	0.584416
	H7978	H	0.835865	0.035404	0.535192
	H7979	H	0.851596	0.035362	0.527510
	Al7980	Al	0.812500	0.000416	0.562482
	Al7981	Al	0.812524	0.250462	0.562586
	Al7982	Al	0.746229	0.250210	0.520083
	Al7983	Al	0.746280	0.000393	0.520076
	O7984	O	0.822618	0.041345	0.579817
	O7985	O	0.812073	0.125448	0.548911
	O7986	O	0.812950	0.375171	0.576181
	O7987	O	0.868603	0.041309	0.587849
	O7988	O	0.803405	0.041384	0.580648
	O7989	O	0.759161	0.041566	0.607028
	O7990	O	0.803376	0.209425	0.580754
	O7991	O	0.802362	0.291124	0.545552
	O7992	O	0.756378	0.291045	0.537201
	O7993	O	0.822634	0.209423	0.579643
	O7994	O	0.821595	0.291370	0.544345
	O7995	O	0.865881	0.291102	0.518277
	O7996	O	0.759156	0.209858	0.606892
	O7997	O	0.802361	0.459365	0.545556
	O7998	O	0.756384	0.459330	0.537297
	O7999	O	0.865849	0.459316	0.518057
	O8000	O	0.821631	0.459545	0.544378
	O8001	O	0.868634	0.209245	0.587706
	O8002	O	0.749614	0.375733	0.611485
	O8003	O	0.875433	0.124831	0.513581
	C8004	C	0.850178	0.215246	0.583995
	C8005	C	0.854878	0.125367	0.584344
	C8006	C	0.850180	0.035317	0.584164
	C8007	C	0.841036	0.035333	0.583664
	C8008	C	0.836335	0.125249	0.583225
	C8009	C	0.841035	0.215312	0.583490
	C8010	C	0.826503	0.125279	0.580810
	C8011	C	0.864725	0.125382	0.586665
	C8012	C	0.799718	0.125447	0.583299
	C8013	C	0.790284	0.125394	0.589454
	C8014	C	0.785732	0.215280	0.591758
	C8015	C	0.776851	0.215412	0.596094
	C8016	C	0.772277	0.125626	0.598352
	C8017	C	0.776835	0.035867	0.596047
	C8018	C	0.785712	0.035600	0.591689
	C8019	C	0.762858	0.125729	0.604508
	C8020	C	0.798470	0.375269	0.544468
	C8021	C	0.788627	0.375188	0.542081
	C8022	C	0.783930	0.465145	0.541756
	C8023	C	0.774790	0.465116	0.541146
	C8024	C	0.770106	0.375176	0.540761
	C8025	C	0.774802	0.285193	0.541008
	C8026	C	0.783938	0.285222	0.541640
	C8027	C	0.760251	0.375092	0.538350
	C8028	C	0.825299	0.375293	0.541778
	C8029	C	0.834740	0.375232	0.535620
	C8030	C	0.839304	0.285356	0.533339
	C8031	C	0.848180	0.285269	0.529020
	C8032	C	0.852734	0.375233	0.526748
	C8033	C	0.848155	0.465037	0.528932
	C8034	C	0.839287	0.465087	0.533285
	C8035	C	0.862162	0.375254	0.520531
	H8036	H	0.851605	0.215172	0.527504
	H8037	H	0.835881	0.215405	0.535127
	H8038	H	0.853717	0.285138	0.584153
	H8039	H	0.837511	0.285598	0.583289
	H8040	H	0.811367	0.125879	0.534342
	H8041	H	0.813589	0.375618	0.590797
	H8042	H	0.749156	0.375945	0.596882
	H8043	H	0.876091	0.124498	0.528146
	H8044	H	0.787468	0.214944	0.541843
	H8045	H	0.771286	0.215036	0.540777
	H8046	H	0.773431	0.285709	0.597612
	H8047	H	0.789149	0.285439	0.590021
	H8048	H	0.771242	0.535291	0.541041
	H8049	H	0.787464	0.535177	0.542092
	H8050	H	0.789124	-0.034650	0.589942
	H8051	H	0.773395	-0.034253	0.597631
	H8052	H	0.837523	-0.034625	0.583527
	H8053	H	0.853687	-0.034989	0.584446
	H8054	H	0.835900	0.535320	0.535023
	H8055	H	0.851605	0.534918	0.527373
	Al8056	Al	0.816228	-0.500095	0.667673
	Al8057	Al	0.816253	-0.250118	0.667479
	Al8058	Al	0.750022	-0.249427	0.625146
	Al8059	Al	0.750024	-0.499277	0.625073
	O8060	O	0.826341	-0.458828	0.684782
	O8061	O	0.815805	-0.375087	0.653984
	O8062	O	0.816690	-0.125516	0.681199
	O8063	O	0.872321	-0.459831	0.693009
	O8064	O	0.807092	-0.459101	0.685879
	O8065	O	0.762880	-0.458912	0.711788
	O8066	O	0.807134	-0.290959	0.685788
	O8067	O	0.806105	-0.209505	0.650343
	O8068	O	0.760175	-0.209222	0.642202
	O8069	O	0.826388	-0.290494	0.684577
	O8070	O	0.825367	-0.209234	0.649333
	O8071	O	0.869619	-0.209495	0.623020
	O8072	O	0.762801	-0.290919	0.711636
	O8073	O	0.806130	-0.041170	0.650465
	O8074	O	0.760148	-0.040841	0.642359
	O8075	O	0.869645	-0.041184	0.623244
	O8076	O	0.825391	-0.040864	0.649533
	O8077	O	0.872349	-0.291388	0.692643
	O8078	O	0.753359	-0.124484	0.716393
	O8079	O	0.879140	-0.374833	0.618476
	C8080	C	0.853930	-0.285165	0.688986
	C8081	C	0.858614	-0.375213	0.689195
	C8082	C	0.853913	-0.465080	0.688997
	C8083	C	0.844780	-0.464900	0.688500
	C8084	C	0.840096	-0.374911	0.688176
	C8085	C	0.844793	-0.284927	0.688483
	C8086	C	0.830259	-0.374706	0.685714
	C8087	C	0.868474	-0.375595	0.691818
	C8088	C	0.803439	-0.374820	0.688353
	C8089	C	0.793988	-0.374648	0.694380
	C8090	C	0.789429	-0.284768	0.696714
	C8091	C	0.780544	-0.284538	0.700927
	C8092	C	0.775976	-0.374415	0.703132
	C8093	C	0.780521	-0.464396	0.700820
	C8094	C	0.789410	-0.464449	0.696595
	C8095	C	0.766517	-0.374713	0.709139
	C8096	C	0.802249	-0.125353	0.649398
	C8097	C	0.792397	-0.125059	0.646937
	C8098	C	0.787723	-0.034927	0.646643
	C8099	C	0.778600	-0.034966	0.646103
	C8100	C	0.773904	-0.124887	0.645849
	C8101	C	0.778581	-0.215075	0.646170
	C8102	C	0.787719	-0.215089	0.646707
	C8103	C	0.764035	-0.124981	0.643296
	C8104	C	0.829059	-0.125160	0.646878
	C8105	C	0.838478	-0.125126	0.640644
	C8106	C	0.843052	-0.215160	0.638468
	C8107	C	0.851928	-0.215351	0.634079
	C8108	C	0.856496	-0.125542	0.631728
	C8109	C	0.851932	-0.035597	0.634048
	C8110	C	0.843056	-0.035328	0.638414
	C8111	C	0.865934	-0.125295	0.625586
	H8112	H	0.855340	-0.285627	0.632531
	H8113	H	0.839656	-0.285178	0.640275
	H8114	H	0.857494	-0.215301	0.689142
	H8115	H	0.841239	-0.214795	0.688138
	H8116	H	0.815205	-0.375592	0.639402
	H8117	H	0.817349	-0.125724	0.695728
	H8118	H	0.752818	-0.124543	0.701841
	H8119	H	0.879694	-0.374631	0.633047
	H8120	H	0.791248	-0.285087	0.646930
	H8121	H	0.775032	-0.285041	0.645886
	H8122	H	0.777118	-0.214370	0.702674
	H8123	H	0.792855	-0.214591	0.695322
	H8124	H	0.775076	0.034905	0.645829
	H8125	H	0.791240	0.035282	0.646773
	H8126	H	0.792851	-0.534491	0.695071
	H8127	H	0.777125	-0.534545	0.702432
	H8128	H	0.841254	-0.534874	0.688163
	H8129	H	0.857450	-0.535169	0.689214
	H8130	H	0.839649	0.034878	0.640166
	H8131	H	0.855361	0.034543	0.632466
	Al8132	Al	0.816246	-0.000154	0.667650
	Al8133	Al	0.816222	0.249857	0.667494
	Al8134	Al	0.750000	0.250686	0.625080
	Al8135	Al	0.750051	0.000729	0.625143
	O8136	O	0.826381	0.041112	0.684728
	O8137	O	0.815811	0.124684	0.654074
	O8138	O	0.816652	0.375166	0.681142
	O8139	O	0.872428	0.041056	0.692591
	O8140	O	0.807134	0.041010	0.685848
	O8141	O	0.762846	0.041656	0.711608
	O8142	O	0.807148	0.209325	0.685882
	O8143	O	0.806125	0.290827	0.650294
	O8144	O	0.760170	0.291534	0.642124
	O8145	O	0.826370	0.209589	0.684567
	O8146	O	0.825275	0.290910	0.649184
	O8147	O	0.869577	0.291176	0.623109
	O8148	O	0.762865	0.209944	0.711712
	O8149	O	0.806152	0.459183	0.650343
	O8150	O	0.760130	0.459863	0.642321
	O8151	O	0.869592	0.459345	0.623276
	O8152	O	0.825316	0.459162	0.649318
	O8153	O	0.872384	0.209402	0.692888
	O8154	O	0.753325	0.375746	0.716411
	O8155	O	0.879139	0.125167	0.618597
	C8156	C	0.853978	0.215254	0.689226
	C8157	C	0.858656	0.125145	0.689403
	C8158	C	0.853966	0.035139	0.689061
	C8159	C	0.844813	0.035240	0.688486
	C8160	C	0.840126	0.125302	0.688131
	C8161	C	0.844817	0.215354	0.688605
	C8162	C	0.830239	0.125364	0.685777
	C8163	C	0.868523	0.125213	0.691709
	C8164	C	0.803428	0.125339	0.688290
	C8165	C	0.794010	0.125347	0.694422
	C8166	C	0.789459	0.215405	0.696689
	C8167	C	0.780561	0.215687	0.700951
	C8168	C	0.775981	0.125792	0.703065
	C8169	C	0.780530	0.035834	0.700801
	C8170	C	0.789427	0.035564	0.696538
	C8171	C	0.766573	0.125752	0.709192
	C8172	C	0.802254	0.375163	0.649221
	C8173	C	0.792401	0.375313	0.646843
	C8174	C	0.787724	0.465561	0.646512
	C8175	C	0.778591	0.465743	0.646043
	C8176	C	0.773890	0.375711	0.645748
	C8177	C	0.778584	0.285665	0.646095
	C8178	C	0.787709	0.285503	0.646577
	C8179	C	0.764020	0.375775	0.643334
	C8180	C	0.828993	0.374991	0.646725
	C8181	C	0.838420	0.374975	0.640556
	C8182	C	0.842994	0.285290	0.638255
	C8183	C	0.851871	0.285186	0.634009
	C8184	C	0.856445	0.374998	0.631804
	C8185	C	0.851873	0.464637	0.634138
	C8186	C	0.843005	0.464722	0.638403
	C8187	C	0.865878	0.375130	0.625711
	H8188	H	0.855293	0.215046	0.632286
	H8189	H	0.839548	0.215451	0.639751
	H8190	H	0.857493	0.285387	0.689419
	H8191	H	0.841296	0.285307	0.688453
	H8192	H	0.815221	0.124179	0.639493
	H8193	H	0.817326	0.374856	0.695739
	H8194	H	0.752707	0.376395	0.701818
	H8195	H	0.879816	0.123856	0.633134
	H8196	H	0.791232	0.215173	0.646842
	H8197	H	0.775053	0.215717	0.646053
	H8198	H	0.777176	0.286281	0.702678
	H8199	H	0.792919	0.285422	0.695201
	H8200	H	0.775068	0.535612	0.645975
	H8201	H	0.791282	0.535386	0.646772
	H8202	H	0.792823	-0.034815	0.694965
	H8203	H	0.777116	-0.034264	0.702491
	H8204	H	0.841298	-0.034775	0.688249
	H8205	H	0.857485	-0.034932	0.689103
	H8206	H	0.839589	0.534916	0.639963
	H8207	H	0.855311	0.534780	0.632470
	Al8208	Al	0.819962	-0.499895	0.772332
	Al8209	Al	0.820011	-0.250080	0.772680
	Al8210	Al	0.753765	-0.249294	0.730067
	Al8211	Al	0.753737	-0.499318	0.729968
	O8212	O	0.830147	-0.459703	0.789446
	O8213	O	0.819577	-0.374694	0.758923
	O8214	O	0.820411	-0.124956	0.786227
	O8215	O	0.876080	-0.458906	0.798784
	O8216	O	0.810885	-0.458692	0.790673
	O8217	O	0.766579	-0.458991	0.816687
	O8218	O	0.810805	-0.290669	0.790594
	O8219	O	0.809877	-0.208806	0.755472
	O8220	O	0.763923	-0.209394	0.747116
	O8221	O	0.830076	-0.291431	0.789943
	O8222	O	0.829126	-0.209463	0.754455
	O8223	O	0.873330	-0.209692	0.728108
	O8224	O	0.766608	-0.290957	0.816676
	O8225	O	0.809855	-0.040361	0.755549
	O8226	O	0.763860	-0.041158	0.747067
	O8227	O	0.873320	-0.041313	0.728118
	O8228	O	0.829086	-0.041090	0.754363
	O8229	O	0.876041	-0.290442	0.798915
	O8230	O	0.757080	-0.124509	0.821111
	O8231	O	0.882908	-0.375087	0.723611
	C8232	C	0.857632	-0.285064	0.795014
	C8233	C	0.862330	-0.374919	0.795199
	C8234	C	0.857662	-0.464924	0.794785
	C8235	C	0.848541	-0.465085	0.794053
	C8236	C	0.843827	-0.375152	0.793660
	C8237	C	0.848496	-0.285066	0.794242
	C8238	C	0.833961	-0.375402	0.790856
	C8239	C	0.872182	-0.374801	0.797705
	C8240	C	0.807139	-0.374843	0.793136
	C8241	C	0.797744	-0.375266	0.799442
	C8242	C	0.793148	-0.285485	0.801559
	C8243	C	0.784278	-0.285657	0.805892
	C8244	C	0.779713	-0.375448	0.808152
	C8245	C	0.784299	-0.465275	0.806083
	C8246	C	0.793179	-0.465075	0.801773
	C8247	C	0.770291	-0.375097	0.814301
	C8248	C	0.806001	-0.124479	0.754427
	C8249	C	0.796146	-0.124853	0.751857
	C8250	C	0.791430	-0.034823	0.751651
	C8251	C	0.782305	-0.034838	0.751004
	C8252	C	0.777624	-0.124945	0.750501
	C8253	C	0.782338	-0.214917	0.750795
	C8254	C	0.791469	-0.214923	0.751423
	C8255	C	0.767774	-0.125162	0.748156
	C8256	C	0.832802	-0.125003	0.751955
	C8257	C	0.842228	-0.125195	0.745716
	C8258	C	0.846800	-0.215093	0.743524
	C8259	C	0.855679	-0.215078	0.739202
	C8260	C	0.860223	-0.125225	0.736906
	C8261	C	0.855664	-0.035329	0.739225
	C8262	C	0.846786	-0.035345	0.743552
	C8263	C	0.869630	-0.125484	0.730592
	H8264	H	0.859100	-0.285182	0.737572
	H8265	H	0.843393	-0.285058	0.745190
	H8266	H	0.861158	-0.215233	0.795470
	H8267	H	0.844955	-0.214878	0.794088
	H8268	H	0.818909	-0.374449	0.744401
	H8269	H	0.820907	-0.125372	0.800810
	H8270	H	0.756603	-0.124100	0.806575
	H8271	H	0.883550	-0.375193	0.738108
	H8272	H	0.795004	-0.284670	0.751549
	H8273	H	0.778784	-0.285080	0.750429
	H8274	H	0.780852	-0.215399	0.807548
	H8275	H	0.796526	-0.215355	0.799809
	H8276	H	0.778756	0.035241	0.750812
	H8277	H	0.794975	0.035290	0.751964
	H8278	H	0.796606	-0.535330	0.800205
	H8279	H	0.780902	-0.535475	0.807941
	H8280	H	0.845012	-0.535275	0.793763
	H8281	H	0.861173	-0.535007	0.795068
	H8282	H	0.843382	0.034817	0.745294
	H8283	H	0.859080	0.034965	0.737557
	Al8284	Al	0.819997	0.000106	0.772649
	Al8285	Al	0.819989	0.250044	0.772576
	Al8286	Al	0.753754	0.250618	0.729914
	Al8287	Al	0.753740	0.000852	0.729922
	O8288	O	0.830080	0.040689	0.789870
	O8289	O	0.819618	0.124872	0.759018
	O8290	O	0.820400	0.375060	0.786002
	O8291	O	0.876102	0.041079	0.798791
	O8292	O	0.810848	0.040773	0.790833
	O8293	O	0.766583	0.041188	0.816606
	O8294	O	0.810856	0.209248	0.790782
	O8295	O	0.809841	0.291363	0.755453
	O8296	O	0.763853	0.291156	0.747049
	O8297	O	0.830090	0.208975	0.789904
	O8298	O	0.829099	0.290850	0.754293
	O8299	O	0.873335	0.290122	0.728143
	O8300	O	0.766587	0.209388	0.816755
	O8301	O	0.809844	0.459811	0.755333
	O8302	O	0.763811	0.459600	0.747257
	O8303	O	0.873377	0.458314	0.728432
	O8304	O	0.829096	0.459091	0.754214
	O8305	O	0.876052	0.209457	0.798906
	O8306	O	0.757013	0.375506	0.821134
	O8307	O	0.882867	0.124146	0.723606
	C8308	C	0.857626	0.214781	0.794959
	C8309	C	0.862349	0.125023	0.795327
	C8310	C	0.857668	0.035115	0.794806
	C8311	C	0.848531	0.035000	0.794058
	C8312	C	0.843813	0.124847	0.793692
	C8313	C	0.848500	0.214695	0.794177
	C8314	C	0.833976	0.124634	0.791035
	C8315	C	0.872203	0.125165	0.797750
	C8316	C	0.807156	0.125042	0.793291
	C8317	C	0.797735	0.125072	0.799343
	C8318	C	0.793163	0.215087	0.801527
	C8319	C	0.784283	0.215354	0.805770
	C8320	C	0.779712	0.125433	0.808022
	C8321	C	0.784294	0.035505	0.805866
	C8322	C	0.793176	0.035275	0.801658
	C8323	C	0.770285	0.125261	0.814151
	C8324	C	0.805950	0.375423	0.754296
	C8325	C	0.796104	0.375541	0.751953
	C8326	C	0.791407	0.465477	0.751588
	C8327	C	0.782259	0.465480	0.750983
	C8328	C	0.777577	0.375482	0.750624
	C8329	C	0.782283	0.285624	0.750880
	C8330	C	0.791418	0.285507	0.751475
	C8331	C	0.767719	0.375445	0.748281
	C8332	C	0.832793	0.374789	0.751811
	C8333	C	0.842250	0.374998	0.745823
	C8334	C	0.846803	0.284911	0.743486
	C8335	C	0.855674	0.285034	0.739216
	C8336	C	0.860238	0.374780	0.736985
	C8337	C	0.855674	0.464790	0.739241
	C8338	C	0.846802	0.464758	0.743494
	C8339	C	0.869667	0.374270	0.730754
	H8340	H	0.859104	0.215104	0.737690
	H8341	H	0.843418	0.214969	0.745214
	H8342	H	0.861108	0.284874	0.795261
	H8343	H	0.844957	0.284611	0.793878
	H8344	H	0.819132	0.124950	0.744499
	H8345	H	0.820894	0.375700	0.800563
	H8346	H	0.756421	0.376422	0.806564
	H8347	H	0.883264	0.123850	0.738173
	H8348	H	0.794934	0.215353	0.751646
	H8349	H	0.778767	0.215543	0.750660
	H8350	H	0.780838	0.285333	0.807234
	H8351	H	0.796584	0.285114	0.799841
	H8352	H	0.778722	0.535506	0.750844
	H8353	H	0.794916	0.535633	0.751808
	H8354	H	0.796599	-0.034595	0.800062
	H8355	H	0.780871	-0.034554	0.807507
	H8356	H	0.844997	-0.034975	0.793661
	H8357	H	0.861215	-0.034556	0.795010
	H8358	H	0.843371	0.534736	0.745256
	H8359	H	0.859116	0.534881	0.737735
	Al8360	Al	0.823195	-0.499749	0.879797
	Al8361	Al	0.823170	-0.250630	0.879633
	Al8362	Al	0.757439	-0.249519	0.834679
	Al8363	Al	0.757425	-0.499402	0.834800
	O8364	O	0.832027	-0.459510	0.900598
	O8365	O	0.823166	-0.375330	0.866307
	O8366	O	0.823024	-0.125463	0.893119
	O8367	O	0.866967	-0.459380	0.976900
	O8368	O	0.813697	-0.459020	0.896695
	O8369	O	0.770140	-0.459134	0.925581
	O8370	O	0.813721	-0.290561	0.896767
	O8371	O	0.813518	-0.209290	0.860755
	O8372	O	0.767573	-0.208831	0.851849
	O8373	O	0.831937	-0.291427	0.900764
	O8374	O	0.832689	-0.209748	0.863281
	O8375	O	0.876305	-0.208750	0.834754
	O8376	O	0.770143	-0.290575	0.925746
	O8377	O	0.813462	-0.040939	0.861030
	O8378	O	0.767553	-0.040648	0.851910
	O8379	O	0.876241	-0.040132	0.834505
	O8380	O	0.832638	-0.041312	0.863037
	O8381	O	0.866931	-0.291293	0.976953
	O8382	O	0.760605	-0.125130	0.928873
	O8383	O	0.885488	-0.374835	0.831070
	C8384	C	0.853008	-0.286644	0.946156
	C8385	C	0.856630	-0.375469	0.953855
	C8386	C	0.853179	-0.464336	0.945802
	C8387	C	0.846227	-0.464315	0.930652
	C8388	C	0.842541	-0.375474	0.923133
	C8389	C	0.846059	-0.286677	0.930999
	C8390	C	0.834970	-0.375533	0.906949
	C8391	C	0.864022	-0.375418	0.970543
	C8392	C	0.810094	-0.374697	0.899495
	C8393	C	0.800822	-0.374443	0.906379
	C8394	C	0.796344	-0.284528	0.909060
	C8395	C	0.787594	-0.284704	0.914316
	C8396	C	0.783140	-0.374728	0.916916
	C8397	C	0.787642	-0.464527	0.914423
	C8398	C	0.796389	-0.464501	0.909188
	C8399	C	0.773800	-0.374856	0.923267
	C8400	C	0.809612	-0.125091	0.859750
	C8401	C	0.799780	-0.124991	0.857529
	C8402	C	0.795107	-0.034824	0.857210
	C8403	C	0.785974	-0.034815	0.856434
	C8404	C	0.781278	-0.124772	0.855951
	C8405	C	0.785961	-0.214821	0.856384
	C8406	C	0.795095	-0.214858	0.857132
	C8407	C	0.771447	-0.124754	0.853141
	C8408	C	0.836335	-0.125442	0.860777
	C8409	C	0.845663	-0.125090	0.854541
	C8410	C	0.850219	-0.214524	0.852263
	C8411	C	0.858956	-0.214495	0.847125
	C8412	C	0.863381	-0.124656	0.844216
	C8413	C	0.858872	-0.034992	0.846825
	C8414	C	0.850119	-0.035083	0.851951
	C8415	C	0.872647	-0.124504	0.837346
	H8416	H	0.862373	-0.284123	0.845292
	H8417	H	0.846839	-0.284195	0.854483
	H8418	H	0.855624	-0.217775	0.952233
	H8419	H	0.843314	-0.217764	0.925249
	H8420	H	0.822877	-0.375484	0.851764
	H8421	H	0.822692	-0.125853	0.907682
	H8422	H	0.760008	-0.124908	0.914404
	H8423	H	0.884969	-0.374823	0.845588
	H8424	H	0.798641	-0.284790	0.857406
	H8425	H	0.782455	-0.285089	0.856186
	H8426	H	0.784181	-0.215364	0.916310
	H8427	H	0.799710	-0.214876	0.906910
	H8428	H	0.782438	0.035124	0.856234
	H8429	H	0.798620	0.035022	0.857557
	H8430	H	0.799783	-0.534267	0.907186
	H8431	H	0.784273	-0.534217	0.916599
	H8432	H	0.843623	-0.533334	0.924578
	H8433	H	0.855920	-0.533177	0.951552
	H8434	H	0.846661	0.034222	0.853938
	H8435	H	0.862261	0.034530	0.844714
	Al8436	Al	0.823184	0.000341	0.879710
	Al8437	Al	0.823155	0.249582	0.879645
	Al8438	Al	0.757420	0.250292	0.834664
	Al8439	Al	0.757459	0.000207	0.834783
	O8440	O	0.832031	0.040470	0.900563
	O8441	O	0.823141	0.124793	0.866317
	O8442	O	0.822967	0.374665	0.893266
	O8443	O	0.866985	0.040378	0.976757
	O8444	O	0.813721	0.040883	0.896848
	O8445	O	0.770133	0.040569	0.925913
	O8446	O	0.813655	0.209248	0.896620
	O8447	O	0.813513	0.290756	0.860846
	O8448	O	0.767494	0.291525	0.852019
	O8449	O	0.831948	0.208517	0.900742
	O8450	O	0.832652	0.290353	0.863177
	O8451	O	0.876340	0.291005	0.834882
	O8452	O	0.770116	0.208989	0.925633
	O8453	O	0.813470	0.459119	0.861076
	O8454	O	0.767536	0.459750	0.852058
	O8455	O	0.876273	0.459329	0.834820
	O8456	O	0.832640	0.458823	0.863186
	O8457	O	0.866922	0.208578	0.976947
	O8458	O	0.760633	0.374805	0.928779
	O8459	O	0.885582	0.124826	0.831113
	C8460	C	0.853012	0.213524	0.946115
	C8461	C	0.856623	0.124478	0.953823
	C8462	C	0.853128	0.035278	0.945927
	C8463	C	0.846167	0.035306	0.930769
	C8464	C	0.842513	0.124428	0.923165
	C8465	C	0.846048	0.213511	0.930965
	C8466	C	0.834996	0.124423	0.906865
	C8467	C	0.864030	0.124359	0.970395
	C8468	C	0.810074	0.125044	0.899534
	C8469	C	0.800821	0.124912	0.906506
	C8470	C	0.796336	0.214609	0.909138
	C8471	C	0.787594	0.214548	0.914366
	C8472	C	0.783128	0.124875	0.917026
	C8473	C	0.787633	0.035247	0.914576
	C8474	C	0.796368	0.035251	0.909321
	C8475	C	0.773802	0.124704	0.923325
	C8476	C	0.809610	0.374750	0.859873
	C8477	C	0.799755	0.374953	0.857555
	C8478	C	0.795059	0.464882	0.857167
	C8479	C	0.785932	0.464940	0.856352
	C8480	C	0.781245	0.375049	0.855877
	C8481	C	0.785935	0.285076	0.856306
	C8482	C	0.795072	0.284925	0.857129
	C8483	C	0.771376	0.375516	0.853222
	C8484	C	0.836315	0.374555	0.860838
	C8485	C	0.845659	0.374590	0.854683
	C8486	C	0.850165	0.284759	0.852371
	C8487	C	0.858939	0.284854	0.847240
	C8488	C	0.863383	0.374726	0.844374
	C8489	C	0.858873	0.464329	0.846931
	C8490	C	0.850118	0.464207	0.852034
	C8491	C	0.872660	0.374992	0.837543
	H8492	H	0.862361	0.215304	0.845379
	H8493	H	0.846786	0.215274	0.854496
	H8494	H	0.855689	0.282661	0.952099
	H8495	H	0.843369	0.282817	0.925015
	H8496	H	0.822781	0.124845	0.851820
	H8497	H	0.822468	0.374387	0.907742
	H8498	H	0.760228	0.374700	0.914245
	H8499	H	0.885090	0.124645	0.845671
	H8500	H	0.798589	0.214936	0.857406
	H8501	H	0.782389	0.215251	0.855943
	H8502	H	0.784189	0.283939	0.916403
	H8503	H	0.799698	0.284253	0.906933
	H8504	H	0.782423	0.535029	0.856088
	H8505	H	0.798601	0.535038	0.857511
	H8506	H	0.799769	-0.034584	0.907282
	H8507	H	0.784278	-0.034317	0.916791
	H8508	H	0.843550	-0.033589	0.924670
	H8509	H	0.855867	-0.033763	0.951689
	H8510	H	0.846694	0.533587	0.853895
	H8511	H	0.862213	0.534383	0.844833
	Al8512	Al	0.926748	-0.501602	0.119909
	Al8513	Al	0.926758	-0.251046	0.119818
	Al8514	Al	0.874989	-0.250580	-0.000179
	Al8515	Al	0.875003	-0.500638	-0.000196
	O8516	O	0.936513	-0.460620	0.138551
	O8517	O	0.927009	-0.376345	0.106436
	O8518	O	0.926791	-0.126526	0.133318
	O8519	O	0.982454	-0.459194	0.147783
	O8520	O	0.917330	-0.460364	0.136501
	O8521	O	0.873761	-0.460575	0.165528
	O8522	O	0.917292	-0.291751	0.136262
	O8523	O	0.917964	-0.210366	0.098832
	O8524	O	0.883035	-0.209889	0.022607
	O8525	O	0.936470	-0.292174	0.138579
	O8526	O	0.936256	-0.210439	0.102913
	O8527	O	0.979882	-0.209861	0.074541
	O8528	O	0.873714	-0.292120	0.165335
	O8529	O	0.917958	-0.042567	0.098919
	O8530	O	0.882987	-0.041924	0.022649
	O8531	O	0.979803	-0.041405	0.074257
	O8532	O	0.936254	-0.042022	0.102873
	O8533	O	0.982437	-0.290906	0.147915
	O8534	O	0.864540	-0.125887	0.169143
	O8535	O	0.989348	-0.375934	0.071413
	C8536	C	0.963993	-0.285480	0.143627
	C8537	C	0.968704	-0.375177	0.144007
	C8538	C	0.964048	-0.465315	0.143304
	C8539	C	0.954904	-0.465715	0.142516
	C8540	C	0.950200	-0.375892	0.142237
	C8541	C	0.954850	-0.285681	0.142848
	C8542	C	0.940340	-0.376248	0.139768
	C8543	C	0.978578	-0.375059	0.146609
	C8544	C	0.913663	-0.375809	0.138881
	C8545	C	0.904333	-0.375834	0.145286
	C8546	C	0.899838	-0.285950	0.147820
	C8547	C	0.891087	-0.286036	0.153061
	C8548	C	0.886639	-0.376134	0.155815
	C8549	C	0.891109	-0.465964	0.153045
	C8550	C	0.899853	-0.465881	0.147798
	C8551	C	0.877359	-0.376391	0.162758
	C8552	C	0.914950	-0.126309	0.092684
	C8553	C	0.907421	-0.126099	0.076343
	C8554	C	0.903826	-0.037194	0.068685
	C8555	C	0.896880	-0.037034	0.053483
	C8556	C	0.893332	-0.125774	0.045709
	C8557	C	0.896892	-0.214752	0.053451
	C8558	C	0.903825	-0.214791	0.068650
	C8559	C	0.885951	-0.125823	0.029048
	C8560	C	0.939897	-0.126296	0.100230
	C8561	C	0.949174	-0.126270	0.093491
	C8562	C	0.953684	-0.215995	0.091046
	C8563	C	0.962428	-0.215842	0.085928
	C8564	C	0.966864	-0.126059	0.083137
	C8565	C	0.962338	-0.036397	0.085392
	C8566	C	0.953582	-0.036410	0.090547
	C8567	C	0.976195	-0.125681	0.076816
	H8568	H	0.965826	-0.285694	0.084061
	H8569	H	0.950326	-0.285676	0.093281
	H8570	H	0.967488	-0.215301	0.143993
	H8571	H	0.951299	-0.215949	0.142817
	H8572	H	0.927457	-0.375869	0.091966
	H8573	H	0.927064	-0.127120	0.147796
	H8574	H	0.864846	-0.125830	0.154607
	H8575	H	0.989732	-0.376740	0.085958
	H8576	H	0.906472	-0.283961	0.074594
	H8577	H	0.894238	-0.283827	0.047537
	H8578	H	0.887705	-0.216375	0.155225
	H8579	H	0.903220	-0.216065	0.145801
	H8580	H	0.894207	0.031813	0.047629
	H8581	H	0.906458	0.031781	0.074702
	H8582	H	0.903244	-0.535587	0.145809
	H8583	H	0.887736	-0.535768	0.155197
	H8584	H	0.951396	-0.535754	0.142230
	H8585	H	0.967621	-0.535185	0.143469
	H8586	H	0.950169	0.033288	0.092405
	H8587	H	0.965715	0.033008	0.083035
	Al8588	Al	0.926776	-0.001647	0.119898
	Al8589	Al	0.926776	0.249282	0.119815
	Al8590	Al	0.874971	0.249444	-0.000155
	Al8591	Al	0.874969	-0.000703	-0.000245
	O8592	O	0.936491	0.039891	0.138572
	O8593	O	0.926999	0.123568	0.106396
	O8594	O	0.926780	0.373747	0.133331
	O8595	O	0.982488	0.041183	0.147736
	O8596	O	0.917346	0.040040	0.136563
	O8597	O	0.873759	0.040200	0.165501
	O8598	O	0.917308	0.208318	0.136446
	O8599	O	0.917986	0.289766	0.098872
	O8600	O	0.882995	0.290084	0.022675
	O8601	O	0.936475	0.208133	0.138616
	O8602	O	0.936296	0.289260	0.102871
	O8603	O	0.979893	0.289688	0.074627
	O8604	O	0.873762	0.208632	0.165438
	O8605	O	0.917918	0.458141	0.099038
	O8606	O	0.883005	0.458436	0.022709
	O8607	O	0.979859	0.458282	0.074512
	O8608	O	0.936200	0.457558	0.102733
	O8609	O	0.982412	0.209389	0.147971
	O8610	O	0.864449	0.373639	0.169089
	O8611	O	0.989361	0.123915	0.071291
	C8612	C	0.964023	0.214655	0.143551
	C8613	C	0.968733	0.124925	0.144054
	C8614	C	0.964083	0.035006	0.143434
	C8615	C	0.954939	0.034571	0.142638
	C8616	C	0.950218	0.124167	0.142358
	C8617	C	0.954879	0.214136	0.142745
	C8618	C	0.940358	0.123997	0.139762
	C8619	C	0.978578	0.125039	0.146713
	C8620	C	0.913657	0.123957	0.138887
	C8621	C	0.904342	0.124039	0.145391
	C8622	C	0.899847	0.213880	0.147746
	C8623	C	0.891105	0.213880	0.153061
	C8624	C	0.886662	0.124137	0.155953
	C8625	C	0.891132	0.034257	0.153342
	C8626	C	0.899879	0.034281	0.148049
	C8627	C	0.877381	0.124232	0.162790
	C8628	C	0.914948	0.373891	0.092716
	C8629	C	0.907407	0.373755	0.076488
	C8630	C	0.903771	0.462849	0.068862
	C8631	C	0.896828	0.463020	0.053664
	C8632	C	0.893306	0.373809	0.045799
	C8633	C	0.896911	0.284632	0.053522
	C8634	C	0.903852	0.284563	0.068718
	C8635	C	0.885934	0.374053	0.029044
	C8636	C	0.939866	0.373462	0.100134
	C8637	C	0.949152	0.373607	0.093330
	C8638	C	0.953676	0.283782	0.090905
	C8639	C	0.962441	0.284136	0.085852
	C8640	C	0.966872	0.374141	0.083146
	C8641	C	0.962329	0.463982	0.085376
	C8642	C	0.953569	0.463522	0.090430
	C8643	C	0.976205	0.373950	0.076931
	H8644	H	0.965902	0.214786	0.083989
	H8645	H	0.950345	0.213937	0.093132
	H8646	H	0.967530	0.284907	0.143918
	H8647	H	0.951321	0.284001	0.142537
	H8648	H	0.927513	0.123379	0.091898
	H8649	H	0.927017	0.373382	0.147894
	H8650	H	0.864908	0.373934	0.154434
	H8651	H	0.989726	0.123628	0.085817
	H8652	H	0.906561	0.215652	0.074534
	H8653	H	0.894283	0.215941	0.047449
	H8654	H	0.887706	0.283726	0.154979
	H8655	H	0.903210	0.283470	0.145426
	H8656	H	0.894151	0.532216	0.047703
	H8657	H	0.906419	0.531641	0.074883
	H8658	H	0.903273	-0.035448	0.145994
	H8659	H	0.887771	-0.035366	0.155459
	H8660	H	0.951461	-0.035574	0.142326
	H8661	H	0.967617	-0.034982	0.143721
	H8662	H	0.950118	0.532912	0.092306
	H8663	H	0.965687	0.533789	0.083163
	Al8664	Al	0.930030	-0.500523	0.227469
	Al8665	Al	0.929992	-0.250294	0.227370
	Al8666	Al	0.864264	-0.251670	0.182556
	Al8667	Al	0.864258	-0.500622	0.182632
	O8668	O	0.940132	-0.459524	0.244681
	O8669	O	0.929655	-0.375365	0.213772
	O8670	O	0.930369	-0.125610	0.240963
	O8671	O	0.986146	-0.459341	0.252862
	O8672	O	0.920872	-0.459612	0.245573
	O8673	O	0.876634	-0.459540	0.271676
	O8674	O	0.920848	-0.291447	0.245482
	O8675	O	0.919929	-0.209468	0.210062
	O8676	O	0.873965	-0.210785	0.201369
	O8677	O	0.940103	-0.291141	0.244543
	O8678	O	0.939119	-0.209717	0.209098
	O8679	O	0.983412	-0.209449	0.183194
	O8680	O	0.876642	-0.291263	0.271772
	O8681	O	0.919885	-0.041486	0.210169
	O8682	O	0.873941	-0.042365	0.201510
	O8683	O	0.983377	-0.041411	0.183144
	O8684	O	0.939135	-0.041559	0.209203
	O8685	O	0.986107	-0.291178	0.252865
	O8686	O	0.867109	-0.125461	0.276353
	O8687	O	0.992938	-0.375839	0.178610
	C8688	C	0.967688	-0.285241	0.248813
	C8689	C	0.972386	-0.375160	0.249292
	C8690	C	0.967719	-0.465325	0.248950
	C8691	C	0.958567	-0.465475	0.248398
	C8692	C	0.953867	-0.375529	0.248070
	C8693	C	0.958539	-0.285477	0.248248
	C8694	C	0.943996	-0.375240	0.245654
	C8695	C	0.982243	-0.375295	0.251714
	C8696	C	0.917172	-0.375367	0.248011
	C8697	C	0.907723	-0.375313	0.254191
	C8698	C	0.903133	-0.285382	0.256235
	C8699	C	0.894257	-0.285491	0.260523
	C8700	C	0.889749	-0.375309	0.263028
	C8701	C	0.894314	-0.465300	0.260761
	C8702	C	0.903190	-0.465333	0.256503
	C8703	C	0.880319	-0.375564	0.269194
	C8704	C	0.916018	-0.125438	0.208965
	C8705	C	0.906180	-0.125793	0.206431
	C8706	C	0.901472	-0.036203	0.206090
	C8707	C	0.892332	-0.036482	0.205426
	C8708	C	0.887667	-0.126543	0.205048
	C8709	C	0.892373	-0.216293	0.205277
	C8710	C	0.901517	-0.215884	0.205933
	C8711	C	0.877820	-0.126565	0.202569
	C8712	C	0.942832	-0.125645	0.206741
	C8713	C	0.952244	-0.125629	0.200510
	C8714	C	0.956829	-0.215299	0.198297
	C8715	C	0.965703	-0.215441	0.193998
	C8716	C	0.970269	-0.125694	0.191778
	C8717	C	0.965662	-0.035847	0.193851
	C8718	C	0.956794	-0.035782	0.198148
	C8719	C	0.979694	-0.125368	0.185592
	H8720	H	0.969107	-0.285700	0.192318
	H8721	H	0.953410	-0.285187	0.199961
	H8722	H	0.971198	-0.214975	0.249107
	H8723	H	0.955016	-0.215491	0.248141
	H8724	H	0.929362	-0.375729	0.199192
	H8725	H	0.930849	-0.125327	0.255534
	H8726	H	0.866742	-0.125499	0.261749
	H8727	H	0.993532	-0.375980	0.193218
	H8728	H	0.905052	-0.285831	0.206129
	H8729	H	0.888878	-0.286292	0.204963
	H8730	H	0.890832	-0.215443	0.262032
	H8731	H	0.906532	-0.215176	0.254544
	H8732	H	0.888786	0.033685	0.205232
	H8733	H	0.904978	0.034247	0.206350
	H8734	H	0.906638	-0.535521	0.254998
	H8735	H	0.890901	-0.535612	0.262560
	H8736	H	0.955066	-0.535640	0.248325
	H8737	H	0.971250	-0.535240	0.249365
	H8738	H	0.953348	0.034254	0.199689
	H8739	H	0.969074	0.034136	0.192123
	Al8740	Al	0.930024	-0.000756	0.227323
	Al8741	Al	0.930021	0.249327	0.227526
	Al8742	Al	0.864256	0.248355	0.182490
	Al8743	Al	0.864286	-0.000615	0.182567
	O8744	O	0.940121	0.039956	0.244562
	O8745	O	0.929618	0.124524	0.213904
	O8746	O	0.930364	0.374666	0.241167
	O8747	O	0.986128	0.040447	0.252673
	O8748	O	0.920829	0.039931	0.245449
	O8749	O	0.876572	0.040141	0.271595
	O8750	O	0.920888	0.207991	0.245736
	O8751	O	0.919956	0.290392	0.210294
	O8752	O	0.873986	0.289360	0.201259
	O8753	O	0.940102	0.208299	0.244799
	O8754	O	0.939158	0.290549	0.209389
	O8755	O	0.983390	0.290854	0.183101
	O8756	O	0.876640	0.208323	0.271782
	O8757	O	0.919935	0.458649	0.210225
	O8758	O	0.873965	0.458078	0.201340
	O8759	O	0.983377	0.458882	0.183184
	O8760	O	0.939157	0.458853	0.209395
	O8761	O	0.986112	0.208586	0.252688
	O8762	O	0.867120	0.374765	0.276271
	O8763	O	0.992951	0.124833	0.178686
	C8764	C	0.967659	0.214312	0.248805
	C8765	C	0.972377	0.124308	0.249173
	C8766	C	0.967720	0.034327	0.248973
	C8767	C	0.958577	0.034325	0.248438
	C8768	C	0.953851	0.124144	0.248066
	C8769	C	0.958515	0.214124	0.248238
	C8770	C	0.943989	0.124014	0.245683
	C8771	C	0.982240	0.124625	0.251646
	C8772	C	0.917162	0.123858	0.248031
	C8773	C	0.907702	0.123879	0.254068
	C8774	C	0.903121	0.213660	0.256268
	C8775	C	0.894266	0.213572	0.260545
	C8776	C	0.889711	0.123752	0.262874
	C8777	C	0.894295	0.033834	0.260703
	C8778	C	0.903151	0.034064	0.256416
	C8779	C	0.880280	0.124142	0.269093
	C8780	C	0.916066	0.374453	0.209068
	C8781	C	0.906218	0.374390	0.206337
	C8782	C	0.901508	0.464272	0.206068
	C8783	C	0.892359	0.463949	0.205301
	C8784	C	0.887690	0.374017	0.204771
	C8785	C	0.892405	0.284231	0.205060
	C8786	C	0.901554	0.284482	0.205826
	C8787	C	0.877849	0.373776	0.202332
	C8788	C	0.942850	0.374645	0.206806
	C8789	C	0.952248	0.374691	0.200516
	C8790	C	0.956829	0.284831	0.198274
	C8791	C	0.965707	0.284963	0.193936
	C8792	C	0.970257	0.374788	0.191672
	C8793	C	0.965668	0.464556	0.193865
	C8794	C	0.956796	0.464463	0.198187
	C8795	C	0.979684	0.374790	0.185642
	H8796	H	0.969120	0.215012	0.192297
	H8797	H	0.953429	0.214643	0.199949
	H8798	H	0.971166	0.284538	0.248999
	H8799	H	0.954969	0.284283	0.247998
	H8800	H	0.929046	0.124905	0.199366
	H8801	H	0.930821	0.374812	0.255705
	H8802	H	0.866498	0.374638	0.261738
	H8803	H	0.993622	0.124802	0.193238
	H8804	H	0.905097	0.214723	0.206082
	H8805	H	0.888897	0.213962	0.204719
	H8806	H	0.890799	0.283439	0.262108
	H8807	H	0.906544	0.283804	0.254584
	H8808	H	0.888814	0.534103	0.205117
	H8809	H	0.904999	0.534663	0.206576
	H8810	H	0.906615	-0.036066	0.254906
	H8811	H	0.890891	-0.036218	0.262443
	H8812	H	0.955084	-0.035700	0.248315
	H8813	H	0.971254	-0.035824	0.249313
	H8814	H	0.953371	0.534476	0.199792
	H8815	H	0.969080	0.534435	0.192157
	Al8816	Al	0.933722	-0.500196	0.332453
	Al8817	Al	0.933734	-0.250308	0.332180
	Al8818	Al	0.867488	-0.250502	0.289943
	Al8819	Al	0.867528	-0.500446	0.289830
	O8820	O	0.943830	-0.459072	0.349588
	O8821	O	0.933259	-0.375531	0.318688
	O8822	O	0.934171	-0.125632	0.345936
	O8823	O	0.989833	-0.459417	0.357626
	O8824	O	0.924633	-0.459536	0.350736
	O8825	O	0.880455	-0.459898	0.376872
	O8826	O	0.924570	-0.291260	0.350326
	O8827	O	0.923607	-0.209567	0.315056
	O8828	O	0.877624	-0.209921	0.307060
	O8829	O	0.943867	-0.290927	0.349386
	O8830	O	0.942872	-0.209669	0.314159
	O8831	O	0.987135	-0.209053	0.288231
	O8832	O	0.880327	-0.291561	0.376389
	O8833	O	0.923612	-0.041265	0.315259
	O8834	O	0.877596	-0.041749	0.307072
	O8835	O	0.987083	-0.040983	0.288030
	O8836	O	0.942821	-0.041545	0.314064
	O8837	O	0.989788	-0.291080	0.357578
	O8838	O	0.870868	-0.125374	0.381335
	O8839	O	0.996647	-0.374875	0.283694
	C8840	C	0.971392	-0.285484	0.353948
	C8841	C	0.976080	-0.375564	0.354212
	C8842	C	0.971400	-0.465635	0.353882
	C8843	C	0.962267	-0.465585	0.353336
	C8844	C	0.957581	-0.375552	0.352984
	C8845	C	0.962269	-0.285555	0.353384
	C8846	C	0.947709	-0.375153	0.350593
	C8847	C	0.985939	-0.375328	0.356553
	C8848	C	0.920917	-0.375322	0.353086
	C8849	C	0.911513	-0.375376	0.359311
	C8850	C	0.906931	-0.285319	0.361456
	C8851	C	0.898038	-0.285266	0.365728
	C8852	C	0.893500	-0.375280	0.368099
	C8853	C	0.898055	-0.465281	0.365831
	C8854	C	0.906953	-0.465329	0.361546
	C8855	C	0.884074	-0.375646	0.374161
	C8856	C	0.919723	-0.125302	0.314206
	C8857	C	0.909876	-0.125427	0.311823
	C8858	C	0.905173	-0.035451	0.311699
	C8859	C	0.896036	-0.035660	0.311092
	C8860	C	0.891345	-0.125536	0.310547
	C8861	C	0.896046	-0.215521	0.310737
	C8862	C	0.905185	-0.215457	0.311370
	C8863	C	0.881499	-0.125684	0.308083
	C8864	C	0.946541	-0.125447	0.311708
	C8865	C	0.955967	-0.125452	0.305610
	C8866	C	0.960566	-0.215500	0.303457
	C8867	C	0.969451	-0.215384	0.299223
	C8868	C	0.974006	-0.125354	0.296886
	C8869	C	0.969406	-0.035396	0.299062
	C8870	C	0.960515	-0.035445	0.303284
	C8871	C	0.983418	-0.125098	0.290663
	H8872	H	0.972856	-0.285649	0.297492
	H8873	H	0.957137	-0.285770	0.305016
	H8874	H	0.974915	-0.215755	0.354098
	H8875	H	0.958745	-0.215515	0.353224
	H8876	H	0.932629	-0.375679	0.304170
	H8877	H	0.935004	-0.125943	0.360444
	H8878	H	0.870311	-0.125707	0.366777
	H8879	H	0.997301	-0.375011	0.298163
	H8880	H	0.908725	-0.285551	0.311488
	H8881	H	0.892506	-0.285567	0.310398
	H8882	H	0.894603	-0.214846	0.367336
	H8883	H	0.910343	-0.215314	0.359807
	H8884	H	0.892508	0.034514	0.311019
	H8885	H	0.908677	0.034624	0.312050
	H8886	H	0.910362	-0.535529	0.360030
	H8887	H	0.894647	-0.535378	0.367502
	H8888	H	0.958720	-0.535580	0.353141
	H8889	H	0.974929	-0.535774	0.354080
	H8890	H	0.957040	0.034519	0.304766
	H8891	H	0.972785	0.034871	0.297245
	Al8892	Al	0.933737	-0.000514	0.332428
	Al8893	Al	0.933740	0.249526	0.332445
	Al8894	Al	0.867535	0.249730	0.289922
	Al8895	Al	0.867482	-0.000558	0.289948
	O8896	O	0.943861	0.040532	0.349462
	O8897	O	0.933266	0.124700	0.318836
	O8898	O	0.934132	0.374512	0.346013
	O8899	O	0.989866	0.040916	0.357388
	O8900	O	0.924660	0.040125	0.350750
	O8901	O	0.880422	0.040285	0.376765
	O8902	O	0.924641	0.208292	0.350663
	O8903	O	0.923631	0.290059	0.315417
	O8904	O	0.877675	0.290257	0.306797
	O8905	O	0.943833	0.208769	0.349701
	O8906	O	0.942893	0.290383	0.314340
	O8907	O	0.987157	0.290535	0.288172
	O8908	O	0.880281	0.208328	0.376299
	O8909	O	0.923633	0.458284	0.315215
	O8910	O	0.877644	0.458820	0.306977
	O8911	O	0.987081	0.458793	0.288019
	O8912	O	0.942801	0.458713	0.314046
	O8913	O	0.989789	0.209397	0.357553
	O8914	O	0.870838	0.374787	0.381197
	O8915	O	0.996668	0.124874	0.283441
	C8916	C	0.971412	0.214774	0.354004
	C8917	C	0.976090	0.124692	0.354193
	C8918	C	0.971400	0.034643	0.353680
	C8919	C	0.962263	0.034674	0.353123
	C8920	C	0.957582	0.124812	0.353002
	C8921	C	0.962277	0.214851	0.353467
	C8922	C	0.947731	0.124731	0.350645
	C8923	C	0.985952	0.124993	0.356465
	C8924	C	0.920945	0.124160	0.353179
	C8925	C	0.911543	0.124390	0.359397
	C8926	C	0.906946	0.214115	0.361562
	C8927	C	0.898056	0.214033	0.365772
	C8928	C	0.893490	0.124228	0.367954
	C8929	C	0.898077	0.034410	0.365724
	C8930	C	0.906967	0.034509	0.361517
	C8931	C	0.884062	0.124607	0.374117
	C8932	C	0.919759	0.374237	0.314196
	C8933	C	0.909894	0.374314	0.311734
	C8934	C	0.905204	0.464357	0.311362
	C8935	C	0.896060	0.464473	0.310742
	C8936	C	0.891389	0.374483	0.310375
	C8937	C	0.896072	0.284315	0.310738
	C8938	C	0.905211	0.284301	0.311385
	C8939	C	0.881530	0.374541	0.307940
	C8940	C	0.946530	0.374691	0.311648
	C8941	C	0.955959	0.374902	0.305435
	C8942	C	0.960524	0.284931	0.303256
	C8943	C	0.969393	0.284754	0.298961
	C8944	C	0.973962	0.374514	0.296627
	C8945	C	0.969386	0.464448	0.298845
	C8946	C	0.960513	0.464732	0.303087
	C8947	C	0.983419	0.374496	0.290576
	H8948	H	0.972827	0.214453	0.297476
	H8949	H	0.957088	0.214916	0.304939
	H8950	H	0.974924	0.284784	0.354259
	H8951	H	0.958751	0.284940	0.353341
	H8952	H	0.932443	0.124282	0.304285
	H8953	H	0.934651	0.374623	0.360427
	H8954	H	0.870212	0.374581	0.366698
	H8955	H	0.997244	0.125299	0.297931
	H8956	H	0.908721	0.213957	0.311578
	H8957	H	0.892542	0.214144	0.310454
	H8958	H	0.894633	0.283954	0.367372
	H8959	H	0.910344	0.284648	0.359902
	H8960	H	0.892534	0.534534	0.310531
	H8961	H	0.908738	0.534495	0.311547
	H8962	H	0.910380	-0.035808	0.359782
	H8963	H	0.894657	-0.035894	0.367312
	H8964	H	0.958738	-0.035423	0.352787
	H8965	H	0.974935	-0.035478	0.353718
	H8966	H	0.957089	0.535202	0.304655
	H8967	H	0.972814	0.534410	0.297214
	Al8968	Al	0.937447	-0.500277	0.437235
	Al8969	Al	0.937512	-0.250289	0.437436
	Al8970	Al	0.871290	-0.250207	0.394940
	Al8971	Al	0.871254	-0.500252	0.394722
	O8972	O	0.947682	-0.459910	0.454135
	O8973	O	0.937055	-0.375109	0.423715
	O8974	O	0.937887	-0.125032	0.450991
	O8975	O	0.993645	-0.459673	0.462679
	O8976	O	0.928391	-0.459150	0.455634
	O8977	O	0.884116	-0.459483	0.481581
	O8978	O	0.928383	-0.291027	0.455699
	O8979	O	0.927435	-0.209249	0.420142
	O8980	O	0.881426	-0.209968	0.412020
	O8981	O	0.947647	-0.291597	0.454454
	O8982	O	0.946624	-0.209836	0.419194
	O8983	O	0.990790	-0.209535	0.392800
	O8984	O	0.884107	-0.291220	0.481626
	O8985	O	0.927362	-0.041082	0.420214
	O8986	O	0.881375	-0.041691	0.412093
	O8987	O	0.990827	-0.041263	0.392879
	O8988	O	0.946591	-0.041671	0.419203
	O8989	O	0.993651	-0.291449	0.462693
	O8990	O	0.874614	-0.124865	0.486189
	O8991	O	1.000346	-0.375284	0.388343
	C8992	C	0.975194	-0.285220	0.458886
	C8993	C	0.979898	-0.375165	0.459225
	C8994	C	0.975223	-0.465380	0.458666
	C8995	C	0.966087	-0.465514	0.458095
	C8996	C	0.961376	-0.375515	0.457916
	C8997	C	0.966052	-0.285372	0.458317
	C8998	C	0.951524	-0.375706	0.455446
	C8999	C	0.989754	-0.375503	0.461588
	C9000	C	0.924693	-0.375083	0.458144
	C9001	C	0.915239	-0.374991	0.464179
	C9002	C	0.910659	-0.285104	0.466352
	C9003	C	0.901777	-0.285206	0.470657
	C9004	C	0.897221	-0.375066	0.472893
	C9005	C	0.901809	-0.464829	0.470692
	C9006	C	0.910687	-0.464833	0.466411
	C9007	C	0.887795	-0.375406	0.479144
	C9008	C	0.923503	-0.125377	0.419071
	C9009	C	0.913658	-0.125642	0.416699
	C9010	C	0.908958	-0.035606	0.416306
	C9011	C	0.899820	-0.035602	0.415722
	C9012	C	0.895128	-0.125597	0.415535
	C9013	C	0.899821	-0.215552	0.415889
	C9014	C	0.908962	-0.215486	0.416425
	C9015	C	0.885283	-0.125613	0.413158
	C9016	C	0.950325	-0.125641	0.416784
	C9017	C	0.959740	-0.125341	0.410588
	C9018	C	0.964320	-0.215074	0.408264
	C9019	C	0.973177	-0.214952	0.403916
	C9020	C	0.977734	-0.125039	0.401690
	C9021	C	0.973151	-0.035144	0.403835
	C9022	C	0.964284	-0.035442	0.408180
	C9023	C	0.987122	-0.125276	0.395324
	H9024	H	0.976630	-0.285134	0.402249
	H9025	H	0.960935	-0.285236	0.409996
	H9026	H	0.978729	-0.215288	0.459115
	H9027	H	0.962522	-0.215390	0.458206
	H9028	H	0.936497	-0.375056	0.409139
	H9029	H	0.938337	-0.124582	0.465637
	H9030	H	0.874150	-0.124615	0.471657
	H9031	H	1.000897	-0.375166	0.402862
	H9032	H	0.912481	-0.285622	0.416683
	H9033	H	0.896317	-0.285880	0.415722
	H9034	H	0.898358	-0.214964	0.472204
	H9035	H	0.914075	-0.215025	0.464566
	H9036	H	0.896294	0.034724	0.415421
	H9037	H	0.912482	0.034529	0.416425
	H9038	H	0.914066	-0.535290	0.464668
	H9039	H	0.898382	-0.534913	0.472243
	H9040	H	0.962543	-0.535611	0.457744
	H9041	H	0.978743	-0.535472	0.458674
	H9042	H	0.960846	0.034656	0.409795
	H9043	H	0.976557	0.034903	0.402065
	Al9044	Al	0.937485	-0.000261	0.437360
	Al9045	Al	0.937488	0.249797	0.437262
	Al9046	Al	0.871275	0.249675	0.394822
	Al9047	Al	0.871280	-0.000268	0.394890
	O9048	O	0.947623	0.040506	0.454458
	O9049	O	0.937025	0.124714	0.423654
	O9050	O	0.937885	0.374788	0.450877
	O9051	O	0.993565	0.040398	0.462634
	O9052	O	0.928370	0.041069	0.455558
	O9053	O	0.884163	0.040465	0.481736
	O9054	O	0.928346	0.209200	0.455415
	O9055	O	0.927381	0.291035	0.420088
	O9056	O	0.881405	0.290170	0.411958
	O9057	O	0.947593	0.208662	0.454462
	O9058	O	0.946536	0.290721	0.418979
	O9059	O	0.990801	0.290736	0.392860
	O9060	O	0.884114	0.208750	0.481757
	O9061	O	0.927316	0.459081	0.420266
	O9062	O	0.881332	0.458317	0.412113
	O9063	O	0.990807	0.458654	0.392916
	O9064	O	0.946553	0.458717	0.418893
	O9065	O	0.993585	0.208584	0.462762
	O9066	O	0.874587	0.374692	0.486331
	O9067	O	1.000374	0.124731	0.388220
	C9068	C	0.975158	0.214411	0.458890
	C9069	C	0.979853	0.124588	0.459194
	C9070	C	0.975174	0.034658	0.458881
	C9071	C	0.966052	0.034842	0.458361
	C9072	C	0.961349	0.124790	0.458079
	C9073	C	0.966027	0.214610	0.458337
	C9074	C	0.951483	0.124607	0.455486
	C9075	C	0.989691	0.124610	0.461689
	C9076	C	0.924661	0.125157	0.458027
	C9077	C	0.915237	0.124865	0.464112
	C9078	C	0.910671	0.214806	0.466348
	C9079	C	0.901802	0.214946	0.470707
	C9080	C	0.897254	0.125105	0.473068
	C9081	C	0.901832	0.035163	0.470765
	C9082	C	0.910702	0.035025	0.466416
	C9083	C	0.887830	0.124859	0.479211
	C9084	C	0.923461	0.374918	0.419026
	C9085	C	0.913623	0.374690	0.416698
	C9086	C	0.908909	0.464650	0.416432
	C9087	C	0.899774	0.464614	0.415966
	C9088	C	0.895097	0.374738	0.415593
	C9089	C	0.899813	0.284775	0.415871
	C9090	C	0.908951	0.284698	0.416368
	C9091	C	0.885246	0.374376	0.413194
	C9092	C	0.950259	0.374663	0.416489
	C9093	C	0.959690	0.374506	0.410478
	C9094	C	0.964261	0.284582	0.408142
	C9095	C	0.973142	0.284627	0.403831
	C9096	C	0.977710	0.374650	0.401595
	C9097	C	0.973138	0.464552	0.403822
	C9098	C	0.964248	0.464484	0.408105
	C9099	C	0.987126	0.374751	0.395471
	H9100	H	0.976566	0.214337	0.402135
	H9101	H	0.960836	0.214457	0.409617
	H9102	H	0.978668	0.284587	0.459151
	H9103	H	0.962478	0.284521	0.458023
	H9104	H	0.936427	0.124521	0.409099
	H9105	H	0.938553	0.375012	0.465315
	H9106	H	0.873948	0.374083	0.471824
	H9107	H	1.001104	0.124018	0.402717
	H9108	H	0.912477	0.214582	0.416478
	H9109	H	0.896295	0.214712	0.415661
	H9110	H	0.898348	0.284940	0.472244
	H9111	H	0.914045	0.284930	0.464578
	H9112	H	0.896240	0.534607	0.415797
	H9113	H	0.912411	0.534676	0.416559
	H9114	H	0.914147	-0.034818	0.464719
	H9115	H	0.898426	-0.035320	0.472283
	H9116	H	0.962536	-0.035391	0.458144
	H9117	H	0.978740	-0.035552	0.459110
	H9118	H	0.960808	0.534534	0.409623
	H9119	H	0.976543	0.534627	0.402160
	Al9120	Al	0.941258	-0.500333	0.542426
	Al9121	Al	0.941228	-0.250159	0.542501
	Al9122	Al	0.874994	-0.250267	0.499834
	Al9123	Al	0.875015	-0.500116	0.499845
	O9124	O	0.951356	-0.459624	0.559632
	O9125	O	0.940863	-0.375328	0.528833
	O9126	O	0.941677	-0.125183	0.556076
	O9127	O	0.997344	-0.459960	0.567725
	O9128	O	0.932149	-0.459477	0.560643
	O9129	O	0.887885	-0.459287	0.586956
	O9130	O	0.932115	-0.291359	0.560668
	O9131	O	0.931121	-0.209148	0.525485
	O9132	O	0.885164	-0.209684	0.516869
	O9133	O	0.951379	-0.291144	0.559591
	O9134	O	0.950398	-0.209261	0.524266
	O9135	O	0.994632	-0.209695	0.498200
	O9136	O	0.887884	-0.291060	0.586702
	O9137	O	0.931119	-0.040880	0.525371
	O9138	O	0.885112	-0.041562	0.517072
	O9139	O	0.994562	-0.041529	0.497974
	O9140	O	0.950300	-0.041007	0.523914
	O9141	O	0.997339	-0.291484	0.567581
	O9142	O	0.878291	-0.124801	0.591341
	O9143	O	1.004099	-0.375572	0.493577
	C9144	C	0.978935	-0.285819	0.563919
	C9145	C	0.983616	-0.375939	0.564112
	C9146	C	0.978926	-0.465802	0.563702
	C9147	C	0.969792	-0.465658	0.563107
	C9148	C	0.965110	-0.375553	0.562929
	C9149	C	0.969811	-0.285684	0.563356
	C9150	C	0.955249	-0.375453	0.560641
	C9151	C	0.993473	-0.375761	0.566577
	C9152	C	0.928428	-0.375475	0.563110
	C9153	C	0.918982	-0.375688	0.569176
	C9154	C	0.914424	-0.285883	0.571472
	C9155	C	0.905546	-0.285952	0.575763
	C9156	C	0.900996	-0.375750	0.578023
	C9157	C	0.905573	-0.465467	0.575956
	C9158	C	0.914461	-0.465535	0.571639
	C9159	C	0.891568	-0.375301	0.584310
	C9160	C	0.927234	-0.124970	0.524323
	C9161	C	0.917392	-0.124898	0.521607
	C9162	C	0.912682	-0.034999	0.521352
	C9163	C	0.903541	-0.035167	0.520758
	C9164	C	0.898872	-0.125235	0.520321
	C9165	C	0.903574	-0.215095	0.520669
	C9166	C	0.912713	-0.214824	0.521322
	C9167	C	0.889027	-0.125515	0.517972
	C9168	C	0.954036	-0.124944	0.521585
	C9169	C	0.963456	-0.124714	0.515404
	C9170	C	0.968006	-0.214781	0.513224
	C9171	C	0.976887	-0.214853	0.508931
	C9172	C	0.981434	-0.125143	0.506624
	C9173	C	0.976888	-0.034953	0.508920
	C9174	C	0.968009	-0.034822	0.513237
	C9175	C	0.990905	-0.125510	0.500553
	H9176	H	0.980309	-0.285170	0.507211
	H9177	H	0.964587	-0.284926	0.514834
	H9178	H	0.982471	-0.215841	0.564243
	H9179	H	0.966281	-0.215526	0.563275
	H9180	H	0.940375	-0.375416	0.514249
	H9181	H	0.942316	-0.124629	0.570499
	H9182	H	0.877674	-0.124294	0.576804
	H9183	H	1.004572	-0.375863	0.508015
	H9184	H	0.916253	-0.284936	0.521490
	H9185	H	0.900082	-0.285300	0.520343
	H9186	H	0.902135	-0.215525	0.577355
	H9187	H	0.917845	-0.215708	0.569849
	H9188	H	0.899991	0.034675	0.520462
	H9189	H	0.916177	0.034901	0.521541
	H9190	H	0.917882	-0.535641	0.570136
	H9191	H	0.902161	-0.535572	0.577686
	H9192	H	0.966264	-0.535687	0.562834
	H9193	H	0.982468	-0.535826	0.563898
	H9194	H	0.964588	0.035456	0.514834
	H9195	H	0.980263	0.035373	0.507240
	Al9196	Al	0.941219	-0.000214	0.542443
	Al9197	Al	0.941234	0.249809	0.542358
	Al9198	Al	0.874988	0.249858	0.500031
	Al9199	Al	0.875018	-0.000157	0.499918
	O9200	O	0.951352	0.041034	0.559616
	O9201	O	0.940882	0.124523	0.528764
	O9202	O	0.941649	0.374520	0.555987
	O9203	O	0.997342	0.040281	0.567727
	O9204	O	0.932092	0.040657	0.560565
	O9205	O	0.887769	0.041123	0.586639
	O9206	O	0.932093	0.208775	0.560564
	O9207	O	0.931120	0.290634	0.525222
	O9208	O	0.885146	0.290576	0.516964
	O9209	O	0.951396	0.209329	0.559439
	O9210	O	0.950335	0.290874	0.524100
	O9211	O	0.994605	0.290196	0.498145
	O9212	O	0.887880	0.209339	0.586883
	O9213	O	0.931143	0.458920	0.525353
	O9214	O	0.885138	0.458865	0.517014
	O9215	O	0.994627	0.458545	0.498161
	O9216	O	0.950333	0.459114	0.524084
	O9217	O	0.997397	0.208881	0.567514
	O9218	O	0.878308	0.374778	0.591406
	O9219	O	1.004136	0.124271	0.493429
	C9220	C	0.978964	0.214740	0.563822
	C9221	C	0.983636	0.124612	0.564086
	C9222	C	0.978942	0.034538	0.563777
	C9223	C	0.969788	0.034696	0.563263
	C9224	C	0.965120	0.124848	0.562875
	C9225	C	0.969808	0.214922	0.563279
	C9226	C	0.955263	0.125006	0.560571
	C9227	C	0.993489	0.124831	0.566489
	C9228	C	0.928386	0.124704	0.563028
	C9229	C	0.918942	0.124732	0.569152
	C9230	C	0.914370	0.214667	0.571453
	C9231	C	0.905499	0.214632	0.575716
	C9232	C	0.900933	0.124825	0.577937
	C9233	C	0.905517	0.034961	0.575805
	C9234	C	0.914375	0.035024	0.571527
	C9235	C	0.891518	0.125015	0.584194
	C9236	C	0.927269	0.374804	0.524207
	C9237	C	0.917397	0.375056	0.521731
	C9238	C	0.912696	0.465016	0.521392
	C9239	C	0.903548	0.464913	0.520773
	C9240	C	0.898866	0.374740	0.520363
	C9241	C	0.903564	0.284711	0.520739
	C9242	C	0.912702	0.284964	0.521363
	C9243	C	0.889010	0.374692	0.518064
	C9244	C	0.954028	0.374910	0.521574
	C9245	C	0.963480	0.374359	0.515492
	C9246	C	0.968046	0.284434	0.513293
	C9247	C	0.976934	0.284492	0.509029
	C9248	C	0.981482	0.374463	0.506773
	C9249	C	0.976919	0.464246	0.508981
	C9250	C	0.968029	0.464240	0.513226
	C9251	C	0.990933	0.374236	0.500731
	H9252	H	0.980331	0.214200	0.507437
	H9253	H	0.964603	0.214433	0.514867
	H9254	H	0.982517	0.284831	0.564120
	H9255	H	0.966291	0.285121	0.563204
	H9256	H	0.940413	0.124452	0.514246
	H9257	H	0.942272	0.374887	0.570596
	H9258	H	0.877880	0.375257	0.576836
	H9259	H	1.004837	0.123934	0.507969
	H9260	H	0.916226	0.214794	0.521446
	H9261	H	0.900048	0.214448	0.520408
	H9262	H	0.902032	0.284792	0.577251
	H9263	H	0.917786	0.284571	0.569765
	H9264	H	0.900013	0.534993	0.520453
	H9265	H	0.916228	0.535141	0.521549
	H9266	H	0.917804	-0.035191	0.569889
	H9267	H	0.902120	-0.035126	0.577456
	H9268	H	0.966261	-0.035297	0.563155
	H9269	H	0.982430	-0.035755	0.564041
	H9270	H	0.964605	0.534492	0.514699
	H9271	H	0.980339	0.534371	0.507336
	Al9272	Al	0.944973	-0.500342	0.647337
	Al9273	Al	0.944988	-0.250275	0.647492
	Al9274	Al	0.878779	-0.250144	0.604831
	Al9275	Al	0.878733	-0.500202	0.605123
	O9276	O	0.955060	-0.460054	0.664584
	O9277	O	0.944561	-0.375328	0.633850
	O9278	O	0.945341	-0.125458	0.661124
	O9279	O	1.001061	-0.458976	0.673443
	O9280	O	0.935855	-0.459346	0.665643
	O9281	O	0.891602	-0.459721	0.691901
	O9282	O	0.935826	-0.291200	0.665533
	O9283	O	0.934882	-0.209325	0.630272
	O9284	O	0.888875	-0.209114	0.621878
	O9285	O	0.955032	-0.291616	0.664884
	O9286	O	0.954114	-0.209439	0.629409
	O9287	O	0.998278	-0.209994	0.602901
	O9288	O	0.891583	-0.291354	0.691731
	O9289	O	0.934826	-0.041113	0.630415
	O9290	O	0.888866	-0.041023	0.622066
	O9291	O	0.998330	-0.041813	0.602972
	O9292	O	0.954129	-0.041479	0.629289
	O9293	O	1.001011	-0.290465	0.673560
	O9294	O	0.882094	-0.125440	0.696330
	O9295	O	1.007849	-0.375756	0.598463
	C9296	C	0.982589	-0.285129	0.669717
	C9297	C	0.987291	-0.375024	0.670013
	C9298	C	0.982632	-0.465212	0.669529
	C9299	C	0.973493	-0.465456	0.668836
	C9300	C	0.968774	-0.375668	0.668437
	C9301	C	0.973439	-0.285564	0.668999
	C9302	C	0.958938	-0.375904	0.665947
	C9303	C	0.997145	-0.374908	0.672379
	C9304	C	0.932156	-0.375310	0.668176
	C9305	C	0.922735	-0.375535	0.674399
	C9306	C	0.918159	-0.285571	0.676536
	C9307	C	0.909268	-0.285672	0.680924
	C9308	C	0.904711	-0.375509	0.683234
	C9309	C	0.909326	-0.465361	0.681290
	C9310	C	0.918221	-0.465359	0.676931
	C9311	C	0.895293	-0.375590	0.689434
	C9312	C	0.930974	-0.125312	0.629296
	C9313	C	0.921130	-0.125499	0.626826
	C9314	C	0.916426	-0.035664	0.626679
	C9315	C	0.907295	-0.035411	0.626080
	C9316	C	0.902614	-0.125354	0.625490
	C9317	C	0.907305	-0.215395	0.625767
	C9318	C	0.916447	-0.215474	0.626398
	C9319	C	0.892769	-0.125078	0.623114
	C9320	C	0.957814	-0.125368	0.626918
	C9321	C	0.967211	-0.125681	0.620587
	C9322	C	0.971788	-0.215644	0.618491
	C9323	C	0.980661	-0.215634	0.614102
	C9324	C	0.985219	-0.125644	0.611648
	C9325	C	0.980639	-0.035623	0.613857
	C9326	C	0.971771	-0.035720	0.618242
	C9327	C	0.994609	-0.125655	0.605428
	H9328	H	0.984092	-0.285613	0.612440
	H9329	H	0.968378	-0.285788	0.620265
	H9330	H	0.986113	-0.215000	0.669963
	H9331	H	0.969890	-0.215623	0.668769
	H9332	H	0.943883	-0.374981	0.619328
	H9333	H	0.945816	-0.125066	0.675703
	H9334	H	0.881613	-0.125297	0.681722
	H9335	H	1.008188	-0.375434	0.613044
	H9336	H	0.919994	-0.285485	0.626421
	H9337	H	0.903778	-0.285405	0.625398
	H9338	H	0.905833	-0.215403	0.682351
	H9339	H	0.921531	-0.215336	0.674572
	H9340	H	0.903790	0.034820	0.625908
	H9341	H	0.919926	0.034318	0.626911
	H9342	H	0.921619	-0.535563	0.675304
	H9343	H	0.905965	-0.535544	0.682957
	H9344	H	0.970007	-0.535516	0.668493
	H9345	H	0.986161	-0.535113	0.669656
	H9346	H	0.968321	0.034136	0.619829
	H9347	H	0.984002	0.034644	0.612028
	Al9348	Al	0.944994	-0.000295	0.647435
	Al9349	Al	0.944983	0.249382	0.647303
	Al9350	Al	0.878724	0.249853	0.605042
	Al9351	Al	0.878719	0.000122	0.604988
	O9352	O	0.955069	0.040602	0.664684
	O9353	O	0.944573	0.124510	0.633801
	O9354	O	0.945354	0.374557	0.660897
	O9355	O	1.001032	0.040610	0.673468
	O9356	O	0.935825	0.040615	0.665611
	O9357	O	0.891608	0.040496	0.691779
	O9358	O	0.935836	0.208807	0.665484
	O9359	O	0.934887	0.290542	0.630112
	O9360	O	0.888881	0.290547	0.622070
	O9361	O	0.955066	0.208918	0.664657
	O9362	O	0.954139	0.290036	0.629181
	O9363	O	0.998362	0.290179	0.603041
	O9364	O	0.891630	0.208607	0.691981
	O9365	O	0.934840	0.458687	0.630247
	O9366	O	0.888860	0.458614	0.622191
	O9367	O	0.998348	0.458203	0.603038
	O9368	O	0.954086	0.458451	0.629018
	O9369	O	1.000999	0.209172	0.673681
	O9370	O	0.882029	0.374647	0.696502
	O9371	O	1.007874	0.124278	0.598415
	C9372	C	0.982598	0.214413	0.669564
	C9373	C	0.987296	0.124468	0.669983
	C9374	C	0.982611	0.034381	0.669652
	C9375	C	0.973478	0.034432	0.668941
	C9376	C	0.968789	0.124533	0.668543
	C9377	C	0.973474	0.214460	0.668861
	C9378	C	0.958945	0.124598	0.665890
	C9379	C	0.997146	0.124768	0.672458
	C9380	C	0.932146	0.124859	0.668105
	C9381	C	0.922737	0.125081	0.674382
	C9382	C	0.918144	0.214791	0.676546
	C9383	C	0.909274	0.214430	0.680932
	C9384	C	0.904730	0.124491	0.683256
	C9385	C	0.909337	0.034797	0.681145
	C9386	C	0.918192	0.035050	0.676781
	C9387	C	0.895303	0.124556	0.689400
	C9388	C	0.930982	0.374481	0.629148
	C9389	C	0.921117	0.374339	0.626866
	C9390	C	0.916427	0.464350	0.626631
	C9391	C	0.907272	0.464421	0.626046
	C9392	C	0.902596	0.374422	0.625565
	C9393	C	0.907289	0.284554	0.625820
	C9394	C	0.916429	0.284461	0.626402
	C9395	C	0.892730	0.374538	0.623225
	C9396	C	0.957828	0.374353	0.626715
	C9397	C	0.967265	0.374108	0.620709
	C9398	C	0.971832	0.284224	0.618513
	C9399	C	0.980700	0.284266	0.614251
	C9400	C	0.985269	0.374119	0.611981
	C9401	C	0.980702	0.463923	0.614170
	C9402	C	0.971837	0.463839	0.618444
	C9403	C	0.994680	0.374067	0.605646
	H9404	H	0.984118	0.213911	0.612576
	H9405	H	0.968395	0.214051	0.620127
	H9406	H	0.986106	0.284591	0.669832
	H9407	H	0.969950	0.284570	0.668574
	H9408	H	0.943958	0.124469	0.619215
	H9409	H	0.945732	0.374407	0.675422
	H9410	H	0.881382	0.375039	0.682001
	H9411	H	1.008429	0.124439	0.613042
	H9412	H	0.919929	0.214215	0.626416
	H9413	H	0.903794	0.214041	0.625525
	H9414	H	0.905829	0.284556	0.682508
	H9415	H	0.921539	0.284836	0.674724
	H9416	H	0.903721	0.534365	0.625939
	H9417	H	0.919957	0.534456	0.626867
	H9418	H	0.921640	-0.035046	0.675190
	H9419	H	0.905949	-0.035463	0.682927
	H9420	H	0.969950	-0.035536	0.668678
	H9421	H	0.986187	-0.035364	0.670015
	H9422	H	0.968405	0.534098	0.620022
	H9423	H	0.984148	0.534014	0.612475
	Al9424	Al	0.948244	-0.499791	0.755060
	Al9425	Al	0.948200	-0.250243	0.754984
	Al9426	Al	0.882421	-0.250720	0.709883
	Al9427	Al	0.882477	-0.500702	0.710092
	O9428	O	0.956996	-0.459110	0.776053
	O9429	O	0.948159	-0.375075	0.741578
	O9430	O	0.948011	-0.125170	0.768513
	O9431	O	0.992005	-0.459482	0.852131
	O9432	O	0.938806	-0.458889	0.772279
	O9433	O	0.895226	-0.459403	0.801110
	O9434	O	0.938707	-0.290570	0.772024
	O9435	O	0.938532	-0.209291	0.736355
	O9436	O	0.892568	-0.209984	0.727088
	O9437	O	0.956993	-0.291056	0.775998
	O9438	O	0.957660	-0.209072	0.738365
	O9439	O	1.001240	-0.209162	0.709429
	O9440	O	0.895157	-0.291186	0.801013
	O9441	O	0.938519	-0.040932	0.736284
	O9442	O	0.892539	-0.041565	0.727230
	O9443	O	1.001218	-0.040957	0.709369
	O9444	O	0.957682	-0.040730	0.738409
	O9445	O	0.991993	-0.291364	0.852113
	O9446	O	0.885703	-0.124857	0.804221
	O9447	O	1.010513	-0.375104	0.705740
	C9448	C	0.978134	-0.286305	0.821217
	C9449	C	0.981690	-0.375193	0.829024
	C9450	C	0.978100	-0.464132	0.821356
	C9451	C	0.971132	-0.464020	0.806252
	C9452	C	0.967566	-0.375180	0.798447
	C9453	C	0.971182	-0.286240	0.806067
	C9454	C	0.960003	-0.375054	0.782237
	C9455	C	0.989086	-0.375425	0.845688
	C9456	C	0.935144	-0.374735	0.774900
	C9457	C	0.925866	-0.374979	0.781857
	C9458	C	0.921410	-0.285183	0.784675
	C9459	C	0.912663	-0.285073	0.789878
	C9460	C	0.908194	-0.374907	0.792397
	C9461	C	0.912681	-0.464589	0.789889
	C9462	C	0.921415	-0.464637	0.784656
	C9463	C	0.898853	-0.375224	0.798601
	C9464	C	0.934624	-0.125087	0.735251
	C9465	C	0.924781	-0.124966	0.732797
	C9466	C	0.920064	-0.035199	0.732539
	C9467	C	0.910936	-0.035501	0.731765
	C9468	C	0.906269	-0.125567	0.731131
	C9469	C	0.910983	-0.215251	0.731501
	C9470	C	0.920113	-0.214947	0.732322
	C9471	C	0.896436	-0.125712	0.728339
	C9472	C	0.961331	-0.124936	0.735965
	C9473	C	0.970666	-0.125304	0.729654
	C9474	C	0.975135	-0.215273	0.727006
	C9475	C	0.983875	-0.215083	0.721774
	C9476	C	0.988347	-0.125160	0.719095
	C9477	C	0.983867	-0.035399	0.721815
	C9478	C	0.975126	-0.035402	0.727051
	C9479	C	0.997615	-0.125191	0.712206
	H9480	H	0.987262	-0.284700	0.719633
	H9481	H	0.971724	-0.284864	0.728958
	H9482	H	0.980818	-0.217079	0.827145
	H9483	H	0.968521	-0.217103	0.800086
	H9484	H	0.947717	-0.375283	0.727000
	H9485	H	0.947672	-0.125255	0.783129
	H9486	H	0.885290	-0.124063	0.789761
	H9487	H	1.010091	-0.375453	0.720258
	H9488	H	0.923669	-0.284844	0.732530
	H9489	H	0.907464	-0.285099	0.731040
	H9490	H	0.909258	-0.215539	0.791905
	H9491	H	0.924828	-0.215406	0.782649
	H9492	H	0.907398	0.034327	0.731518
	H9493	H	0.923571	0.034794	0.732874
	H9494	H	0.924785	-0.534380	0.782684
	H9495	H	0.909295	-0.533944	0.791918
	H9496	H	0.968415	-0.532994	0.800410
	H9497	H	0.980762	-0.533228	0.827297
	H9498	H	0.971724	0.034132	0.729087
	H9499	H	0.987234	0.034254	0.719719
	Al9500	Al	0.948200	0.000296	0.754994
	Al9501	Al	0.948247	0.249512	0.754901
	Al9502	Al	0.882509	0.249372	0.710067
	Al9503	Al	0.882457	-0.000354	0.709928
	O9504	O	0.956984	0.040805	0.775985
	O9505	O	0.948154	0.125016	0.741514
	O9506	O	0.948007	0.374672	0.768475
	O9507	O	0.991898	0.039943	0.852275
	O9508	O	0.938801	0.041038	0.772148
	O9509	O	0.895286	0.040937	0.801226
	O9510	O	0.938744	0.209279	0.771949
	O9511	O	0.938538	0.291261	0.736132
	O9512	O	0.892599	0.290499	0.727325
	O9513	O	0.957032	0.208864	0.775921
	O9514	O	0.957668	0.290743	0.738331
	O9515	O	1.001257	0.290980	0.709452
	O9516	O	0.895244	0.209059	0.801196
	O9517	O	0.938523	0.459502	0.736325
	O9518	O	0.892610	0.458652	0.727128
	O9519	O	1.001196	0.459329	0.709228
	O9520	O	0.957672	0.459152	0.738339
	O9521	O	0.991983	0.208254	0.852089
	O9522	O	0.885676	0.375115	0.804237
	O9523	O	1.010488	0.124607	0.705794
	C9524	C	0.978092	0.213357	0.821339
	C9525	C	0.981644	0.124138	0.829105
	C9526	C	0.978052	0.035144	0.821407
	C9527	C	0.971124	0.035379	0.806216
	C9528	C	0.967581	0.124566	0.798394
	C9529	C	0.971166	0.213628	0.806110
	C9530	C	0.960012	0.124741	0.782167
	C9531	C	0.989034	0.124100	0.845788
	C9532	C	0.935164	0.125090	0.774835
	C9533	C	0.925902	0.125155	0.781749
	C9534	C	0.921423	0.214835	0.784502
	C9535	C	0.912701	0.214595	0.789755
	C9536	C	0.908234	0.125021	0.792413
	C9537	C	0.912712	0.035251	0.789920
	C9538	C	0.921454	0.035564	0.784652
	C9539	C	0.898911	0.125123	0.798699
	C9540	C	0.934650	0.375331	0.735139
	C9541	C	0.924817	0.375269	0.732775
	C9542	C	0.920113	0.465050	0.732487
	C9543	C	0.910973	0.464639	0.731697
	C9544	C	0.906311	0.374634	0.731148
	C9545	C	0.911018	0.284882	0.731471
	C9546	C	0.920158	0.285257	0.732224
	C9547	C	0.896481	0.374488	0.728420
	C9548	C	0.961348	0.374760	0.735951
	C9549	C	0.970671	0.375009	0.729698
	C9550	C	0.975155	0.285275	0.727092
	C9551	C	0.983889	0.285313	0.721837
	C9552	C	0.988342	0.374901	0.719018
	C9553	C	0.983871	0.464641	0.721809
	C9554	C	0.975137	0.464694	0.727125
	C9555	C	0.997606	0.375218	0.712100
	H9556	H	0.987299	0.215543	0.719789
	H9557	H	0.971773	0.215946	0.729173
	H9558	H	0.980764	0.282158	0.827326
	H9559	H	0.968468	0.282788	0.800229
	H9560	H	0.947848	0.124786	0.727069
	H9561	H	0.947418	0.374486	0.782952
	H9562	H	0.885222	0.375304	0.789624
	H9563	H	1.010040	0.124611	0.720266
	H9564	H	0.923688	0.215240	0.732408
	H9565	H	0.907506	0.214910	0.731083
	H9566	H	0.909303	0.284303	0.791718
	H9567	H	0.924774	0.284384	0.782397
	H9568	H	0.907433	0.534520	0.731477
	H9569	H	0.923632	0.535145	0.732913
	H9570	H	0.924868	-0.034015	0.782634
	H9571	H	0.909296	-0.033902	0.791991
	H9572	H	0.968422	-0.033790	0.800346
	H9573	H	0.980688	-0.033894	0.827427
	H9574	H	0.971736	0.534350	0.729207
	H9575	H	0.987241	0.534185	0.719743
	Al9576	Al	0.937544	-0.500689	0.937890
	Al9577	Al	0.937565	-0.250507	0.937884
	Al9578	Al	0.885736	-0.249657	0.817513
	Al9579	Al	0.885769	-0.500259	0.817710
	O9580	O	0.945560	-0.459858	0.960727
	O9581	O	0.938253	-0.375476	0.924755
	O9582	O	0.936734	-0.125741	0.950976
	O9583	O	0.980543	-0.460343	1.036903
	O9584	O	0.927596	-0.459843	0.952658
	O9585	O	0.884938	-0.460035	0.985026
	O9586	O	0.927643	-0.291688	0.952702
	O9587	O	0.929479	-0.209354	0.914921
	O9588	O	0.894549	-0.209155	0.838591
	O9589	O	0.945588	-0.291528	0.960631
	O9590	O	0.947495	-0.209733	0.923197
	O9591	O	0.990075	-0.209941	0.889745
	O9592	O	0.884895	-0.291601	0.985006
	O9593	O	0.929440	-0.041310	0.915068
	O9594	O	0.894480	-0.041283	0.838797
	O9595	O	0.990098	-0.041704	0.889850
	O9596	O	0.947451	-0.041302	0.922998
	O9597	O	0.980540	-0.292128	1.036982
	O9598	O	0.875697	-0.125740	0.986630
	O9599	O	0.999250	-0.375709	0.888188
	C9600	C	0.966433	-0.286761	1.006687
	C9601	C	0.969997	-0.375818	1.014454
	C9602	C	0.966434	-0.464897	1.006734
	C9603	C	0.959475	-0.464854	0.991578
	C9604	C	0.955896	-0.375759	0.983800
	C9605	C	0.959488	-0.286744	0.991505
	C9606	C	0.948505	-0.375667	0.967084
	C9607	C	0.977562	-0.376215	1.030712
	C9608	C	0.924031	-0.375579	0.955370
	C9609	C	0.914904	-0.375576	0.962543
	C9610	C	0.910543	-0.286272	0.965623
	C9611	C	0.901966	-0.286159	0.971925
	C9612	C	0.897631	-0.375466	0.975108
	C9613	C	0.902001	-0.464740	0.972001
	C9614	C	0.910568	-0.464887	0.965734
	C9615	C	0.888500	-0.375702	0.982309
	C9616	C	0.926562	-0.125326	0.908539
	C9617	C	0.919167	-0.125159	0.891837
	C9618	C	0.915512	-0.036268	0.884227
	C9619	C	0.908578	-0.036225	0.869042
	C9620	C	0.905095	-0.125222	0.861115
	C9621	C	0.908742	-0.214122	0.868701
	C9622	C	0.915690	-0.214150	0.883869
	C9623	C	0.897534	-0.125327	0.844885
	C9624	C	0.951043	-0.125471	0.920279
	C9625	C	0.960172	-0.125627	0.912861
	C9626	C	0.964531	-0.214801	0.909779
	C9627	C	0.973093	-0.214764	0.903321
	C9628	C	0.977401	-0.125556	0.899983
	C9629	C	0.973064	-0.036460	0.903200
	C9630	C	0.964509	-0.036483	0.909644
	C9631	C	0.986504	-0.125615	0.892545
	H9632	H	0.976458	-0.283322	0.900733
	H9633	H	0.961193	-0.283794	0.912469
	H9634	H	0.969131	-0.217664	1.012546
	H9635	H	0.956841	-0.217661	0.985506
	H9636	H	0.939046	-0.375993	0.910474
	H9637	H	0.935768	-0.125222	0.965224
	H9638	H	0.876511	-0.126221	0.972286
	H9639	H	0.998383	-0.375394	0.902520
	H9640	H	0.918443	-0.283110	0.889674
	H9641	H	0.906144	-0.283134	0.862628
	H9642	H	0.898606	-0.217631	0.974406
	H9643	H	0.913884	-0.217202	0.963041
	H9644	H	0.905831	0.032726	0.863224
	H9645	H	0.918126	0.032774	0.890328
	H9646	H	0.913915	-0.533756	0.963169
	H9647	H	0.898689	-0.533879	0.974558
	H9648	H	0.956844	-0.533875	0.985608
	H9649	H	0.969133	-0.533898	1.012630
	H9650	H	0.961176	0.032354	0.912179
	H9651	H	0.976358	0.032589	0.900618
	Al9652	Al	0.937533	-0.000895	0.937812
	Al9653	Al	0.937534	0.249409	0.937767
	Al9654	Al	0.885773	0.250439	0.817788
	Al9655	Al	0.885775	-0.000358	0.817614
	O9656	O	0.945555	0.039846	0.960627
	O9657	O	0.938232	0.124391	0.924658
	O9658	O	0.936847	0.374310	0.950899
	O9659	O	0.980562	0.039913	1.036781
	O9660	O	0.927619	0.040222	0.952628
	O9661	O	0.884900	0.039760	0.985021
	O9662	O	0.927539	0.208796	0.952411
	O9663	O	0.929506	0.290613	0.914910
	O9664	O	0.894554	0.291146	0.838663
	O9665	O	0.945585	0.208020	0.960601
	O9666	O	0.947438	0.290401	0.922989
	O9667	O	0.990122	0.289943	0.889888
	O9668	O	0.884898	0.208220	0.985093
	O9669	O	0.929540	0.458697	0.914885
	O9670	O	0.894518	0.458989	0.838755
	O9671	O	0.990103	0.458485	0.889766
	O9672	O	0.947516	0.458878	0.923180
	O9673	O	0.980494	0.208025	1.036907
	O9674	O	0.875691	0.374446	0.986776
	O9675	O	0.999244	0.124134	0.888167
	C9676	C	0.966384	0.212757	1.006599
	C9677	C	0.969979	0.123809	1.014356
	C9678	C	0.966372	0.034769	1.006747
	C9679	C	0.959424	0.034593	0.991563
	C9680	C	0.955879	0.123560	0.983670
	C9681	C	0.959441	0.212718	0.991432
	C9682	C	0.948502	0.123830	0.967038
	C9683	C	0.977533	0.123988	1.030609
	C9684	C	0.924012	0.124413	0.955243
	C9685	C	0.914882	0.124202	0.962524
	C9686	C	0.910533	0.213295	0.965649
	C9687	C	0.901968	0.213151	0.971977
	C9688	C	0.897624	0.124036	0.975183
	C9689	C	0.901977	0.034949	0.972082
	C9690	C	0.910557	0.035075	0.965772
	C9691	C	0.888487	0.124068	0.982387
	C9692	C	0.926598	0.374775	0.908500
	C9693	C	0.919191	0.374855	0.891845
	C9694	C	0.915618	0.463655	0.884089
	C9695	C	0.908644	0.463544	0.868970
	C9696	C	0.905074	0.374892	0.861211
	C9697	C	0.908695	0.286087	0.868897
	C9698	C	0.915667	0.286079	0.884044
	C9699	C	0.897514	0.375129	0.844988
	C9700	C	0.951042	0.374365	0.920285
	C9701	C	0.960193	0.374418	0.913023
	C9702	C	0.964541	0.285170	0.909786
	C9703	C	0.973100	0.284982	0.903316
	C9704	C	0.977428	0.374211	0.900001
	C9705	C	0.973087	0.463433	0.903245
	C9706	C	0.964538	0.463661	0.909750
	C9707	C	0.986537	0.374146	0.892552
	H9708	H	0.976430	0.216289	0.900668
	H9709	H	0.961201	0.216422	0.912393
	H9710	H	0.969066	0.281867	1.012466
	H9711	H	0.956774	0.281753	0.985468
	H9712	H	0.939083	0.124242	0.910417
	H9713	H	0.936157	0.374236	0.965338
	H9714	H	0.876474	0.374032	0.972478
	H9715	H	0.998322	0.124596	0.902433
	H9716	H	0.918349	0.217425	0.889982
	H9717	H	0.906020	0.217150	0.863045
	H9718	H	0.898630	0.281859	0.974510
	H9719	H	0.913852	0.281817	0.963106
	H9720	H	0.905923	0.532554	0.863159
	H9721	H	0.918267	0.532506	0.890053
	H9722	H	0.913890	-0.033322	0.963222
	H9723	H	0.898646	-0.033537	0.974720
	H9724	H	0.956745	-0.034478	0.985663
	H9725	H	0.969055	-0.034386	1.012715
	H9726	H	0.961197	0.532650	0.912311
	H9727	H	0.976408	0.531984	0.900442
