data_Molecule from HDF5

_cell_length_a		148.513120
_cell_length_b		13.360281
_cell_length_c		69.515231
_cell_angle_alpha	90.015781
_cell_angle_beta	93.943797
_cell_angle_gamma	90.014829
_symmetry_space_group_name_H-M	'P 1'
_symmetry_Int_Tables_number		1

loop_
	_symmetry_equiv_pos_as_xyz
	x,y,z

loop_
	_atom_site_label
	_atom_site_type_symbol
	_atom_site_fract_x
	_atom_site_fract_y
	_atom_site_fract_z
	Al0	Al	0.056249	-0.499375	0.089941
	Al1	Al	0.056282	-0.249870	0.090013
	Al2	Al	0.006173	-0.249818	-0.027734
	Al3	Al	0.006156	-0.499822	-0.027801
	O4	O	0.064672	-0.458770	0.110751
	O5	O	0.056949	-0.374495	0.078118
	O6	O	0.055576	-0.124580	0.101776
	O7	O	0.101318	-0.458039	0.179497
	O8	O	0.046160	-0.458255	0.103334
	O9	O	0.003840	-0.458584	0.139323
	O10	O	0.046181	-0.290054	0.103420
	O11	O	0.048065	-0.208349	0.068848
	O12	O	0.014379	-0.208600	-0.006523
	O13	O	0.064650	-0.290539	0.110823
	O14	O	0.066354	-0.208667	0.076600
	O15	O	0.108789	-0.208860	0.041210
	O16	O	0.003840	-0.290065	0.139332
	O17	O	0.048051	-0.040101	0.068932
	O18	O	0.014379	-0.040509	-0.006558
	O19	O	0.108737	-0.040517	0.041040
	O20	O	0.066333	-0.040269	0.076546
	O21	O	0.101292	-0.290164	0.179541
	O22	O	-0.005509	-0.124216	0.140885
	O23	O	0.118168	-0.374308	0.039540
	C24	C	0.086448	-0.285103	0.152404
	C25	C	0.090211	-0.374053	0.159310
	C26	C	0.086488	-0.463137	0.152291
	C27	C	0.079211	-0.463339	0.138611
	C28	C	0.075479	-0.374456	0.131605
	C29	C	0.079172	-0.285207	0.138689
	C30	C	0.067719	-0.374293	0.116584
	C31	C	0.098140	-0.374168	0.173926
	C32	C	0.042605	-0.374329	0.106312
	C33	C	0.033555	-0.374254	0.114204
	C34	C	0.029243	-0.284946	0.117785
	C35	C	0.020749	-0.285094	0.124864
	C36	C	0.016435	-0.374312	0.128435
	C37	C	0.020734	-0.463515	0.124807
	C38	C	0.029229	-0.463375	0.117708
	C39	C	0.007369	-0.374337	0.136326
	C40	C	0.045182	-0.124154	0.062628
	C41	C	0.037995	-0.124031	0.046387
	C42	C	0.034551	-0.035180	0.038686
	C43	C	0.027883	-0.035320	0.023643
	C44	C	0.024457	-0.124232	0.015878
	C45	C	0.027913	-0.213140	0.023555
	C46	C	0.034583	-0.213086	0.038592
	C47	C	0.017227	-0.124364	-0.000286
	C48	C	0.069913	-0.124607	0.073671
	C49	C	0.079014	-0.124656	0.065962
	C50	C	0.083351	-0.214145	0.062537
	C51	C	0.091865	-0.214255	0.055617
	C52	C	0.096158	-0.124709	0.051987
	C53	C	0.091836	-0.035169	0.055417
	C54	C	0.083315	-0.035168	0.062317
	C55	C	0.105234	-0.124898	0.044144
	H56	H	0.095196	-0.283062	0.052916
	H57	H	0.080076	-0.283158	0.065461
	H58	H	0.089246	-0.216319	0.157817
	H59	H	0.076351	-0.216415	0.133427
	H60	H	0.057724	-0.374622	0.065209
	H61	H	0.054917	-0.124792	0.114845
	H62	H	-0.004665	-0.124669	0.127917
	H63	H	0.117628	-0.374470	0.052623
	H64	H	0.037203	-0.282032	0.044408
	H65	H	0.025354	-0.282038	0.017676
	H66	H	0.017430	-0.216199	0.127695
	H67	H	0.032545	-0.216003	0.114946
	H68	H	0.025272	0.033499	0.017806
	H69	H	0.037113	0.033688	0.044570
	H70	H	0.032494	-0.531943	0.114801
	H71	H	0.017405	-0.532328	0.127510
	H72	H	0.076402	-0.532543	0.133281
	H73	H	0.089302	-0.532019	0.157633
	H74	H	0.079970	0.033547	0.065025
	H75	H	0.095121	0.033970	0.052533
	Al76	Al	0.056254	0.000720	0.089990
	Al77	Al	0.056221	0.250647	0.089932
	Al78	Al	0.006140	0.250343	-0.027768
	Al79	Al	0.006179	0.000019	-0.027708
	O80	O	0.064605	0.041402	0.110845
	O81	O	0.056924	0.125762	0.078138
	O82	O	0.055608	0.375830	0.101827
	O83	O	0.101341	0.042391	0.179419
	O84	O	0.046210	0.041674	0.103475
	O85	O	0.003866	0.041469	0.139265
	O86	O	0.046185	0.210093	0.103444
	O87	O	0.048017	0.291553	0.068800
	O88	O	0.014365	0.291075	-0.006627
	O89	O	0.064578	0.209485	0.110878
	O90	O	0.066300	0.291736	0.076582
	O91	O	0.108767	0.291540	0.041281
	O92	O	0.003854	0.210016	0.139292
	O93	O	0.048022	0.459601	0.068796
	O94	O	0.014356	0.459024	-0.006641
	O95	O	0.108780	0.459867	0.041264
	O96	O	0.066307	0.459994	0.076553
	O97	O	0.101285	0.210090	0.179433
	O98	O	-0.005555	0.375954	0.140913
	O99	O	0.118084	0.125367	0.039517
	C100	C	0.086396	0.214434	0.152474
	C101	C	0.090212	0.125507	0.159283
	C102	C	0.086491	0.036540	0.152220
	C103	C	0.079205	0.036749	0.138576
	C104	C	0.075412	0.125674	0.131650
	C105	C	0.079113	0.214532	0.138819
	C106	C	0.067650	0.125532	0.116656
	C107	C	0.098163	0.125934	0.173835
	C108	C	0.042657	0.125611	0.106448
	C109	C	0.033590	0.125506	0.114311
	C110	C	0.029286	0.214906	0.117800
	C111	C	0.020791	0.215288	0.124857
	C112	C	0.016474	0.125976	0.128426
	C113	C	0.020776	0.036540	0.124950
	C114	C	0.029280	0.036157	0.117944
	C115	C	0.007411	0.125838	0.136338
	C116	C	0.045192	0.375621	0.062545
	C117	C	0.037983	0.375422	0.046270
	C118	C	0.034553	0.464303	0.038567
	C119	C	0.027854	0.464059	0.023545
	C120	C	0.024422	0.375128	0.015870
	C121	C	0.027884	0.286187	0.023534
	C122	C	0.034574	0.286323	0.038565
	C123	C	0.017202	0.374924	-0.000375
	C124	C	0.069878	0.375762	0.073666
	C125	C	0.078961	0.375604	0.065977
	C126	C	0.083294	0.286253	0.062567
	C127	C	0.091816	0.286499	0.055619
	C128	C	0.096122	0.375842	0.052002
	C129	C	0.091782	0.465030	0.055438
	C130	C	0.083267	0.464816	0.062377
	C131	C	0.105218	0.375711	0.044266
	H132	H	0.095183	0.217380	0.052991
	H133	H	0.079998	0.217340	0.065499
	H134	H	0.089151	0.283555	0.157935
	H135	H	0.076245	0.283321	0.133528
	H136	H	0.057628	0.125550	0.065078
	H137	H	0.055112	0.375169	0.114988
	H138	H	-0.004670	0.376355	0.128016
	H139	H	0.117490	0.125336	0.052524
	H140	H	0.037181	0.217287	0.044374
	H141	H	0.025330	0.217115	0.017674
	H142	H	0.017501	0.284338	0.127701
	H143	H	0.032605	0.283815	0.114974
	H144	H	0.025273	0.532981	0.017725
	H145	H	0.037124	0.533269	0.044411
	H146	H	0.032603	-0.032765	0.115226
	H147	H	0.017486	-0.032117	0.127872
	H148	H	0.076400	-0.032347	0.133193
	H149	H	0.089334	-0.032279	0.157539
	H150	H	0.079932	0.533794	0.065077
	H151	H	0.095079	0.534181	0.052640
	Al152	Al	0.048099	-0.499193	0.260766
	Al153	Al	0.048081	-0.248384	0.260733
	Al154	Al	-0.006232	-0.249456	0.152747
	Al155	Al	-0.006229	-0.499255	0.152768
	O156	O	0.058326	-0.458349	0.277564
	O157	O	0.048148	-0.373938	0.248513
	O158	O	0.048406	-0.123848	0.272953
	O159	O	0.105452	-0.458661	0.280177
	O160	O	0.038641	-0.457818	0.276052
	O161	O	-0.004940	-0.457750	0.307270
	O162	O	0.038676	-0.289370	0.276258
	O163	O	0.038809	-0.207879	0.242103
	O164	O	0.002155	-0.208025	0.173457
	O165	O	0.058340	-0.290068	0.277406
	O166	O	0.057574	-0.207671	0.244800
	O167	O	0.101173	-0.207729	0.213763
	O168	O	-0.004913	-0.289351	0.307394
	O169	O	0.038824	-0.039869	0.242033
	O170	O	0.002159	-0.039863	0.173528
	O171	O	0.101167	-0.039821	0.213493
	O172	O	0.057572	-0.039456	0.244944
	O173	O	0.105476	-0.290498	0.279971
	O174	O	-0.014383	-0.124456	0.310810
	O175	O	0.110927	-0.373838	0.210513
	C176	C	0.086580	-0.284458	0.278365
	C177	C	0.091360	-0.374317	0.278181
	C178	C	0.086564	-0.464200	0.278394
	C179	C	0.077237	-0.464020	0.278914
	C180	C	0.072451	-0.374263	0.279133
	C181	C	0.077252	-0.284314	0.278864
	C182	C	0.062326	-0.374264	0.278077
	C183	C	0.101457	-0.374524	0.279424
	C184	C	0.034981	-0.373675	0.278749
	C185	C	0.025650	-0.373773	0.285504
	C186	C	0.021173	-0.284080	0.288328
	C187	C	0.012413	-0.283968	0.294135
	C188	C	0.007947	-0.373783	0.297160
	C189	C	0.012400	-0.463649	0.294132
	C190	C	0.021149	-0.463562	0.288325
	C191	C	-0.001315	-0.373401	0.304474
	C192	C	0.035652	-0.123932	0.236505
	C193	C	0.027741	-0.124277	0.221926
	C194	C	0.024001	-0.035416	0.214964
	C195	C	0.016731	-0.035338	0.201287
	C196	C	0.012999	-0.124296	0.194276
	C197	C	0.016715	-0.213358	0.201297
	C198	C	0.023998	-0.213463	0.214978
	C199	C	0.005201	-0.124101	0.179250
	C200	C	0.061186	-0.123468	0.242056
	C201	C	0.070446	-0.123303	0.234758
	C202	C	0.074924	-0.213093	0.231809
	C203	C	0.083685	-0.213246	0.226014
	C204	C	0.088150	-0.123644	0.223049
	C205	C	0.083641	-0.033944	0.225735
	C206	C	0.074876	-0.033721	0.231561
	C207	C	0.097497	-0.123625	0.216265
	H208	H	0.087127	-0.282538	0.223879
	H209	H	0.071589	-0.283050	0.234160
	H210	H	0.090188	-0.214497	0.278083
	H211	H	0.073661	-0.214394	0.278996
	H212	H	0.048433	-0.374590	0.235349
	H213	H	0.049226	-0.123574	0.286096
	H214	H	-0.014290	-0.124748	0.297648
	H215	H	0.111745	-0.373674	0.223724
	H216	H	0.026810	-0.282445	0.220317
	H217	H	0.013902	-0.282323	0.195972
	H218	H	0.009034	-0.214232	0.296448
	H219	H	0.024532	-0.214124	0.286045
	H220	H	0.013891	0.033640	0.195954
	H221	H	0.026800	0.033647	0.220286
	H222	H	0.024523	-0.533120	0.286083
	H223	H	0.009054	-0.533674	0.296401
	H224	H	0.073592	-0.534239	0.279036
	H225	H	0.090147	-0.534287	0.278201
	H226	H	0.071478	0.035949	0.233718
	H227	H	0.086980	0.035545	0.223362
	Al228	Al	0.048135	0.000663	0.260803
	Al229	Al	0.048088	0.251644	0.260881
	Al230	Al	-0.006225	0.250800	0.152665
	Al231	Al	-0.006238	0.000890	0.152613
	O232	O	0.058347	0.041791	0.277558
	O233	O	0.048156	0.126246	0.248604
	O234	O	0.048418	0.376372	0.272974
	O235	O	0.105432	0.041435	0.280391
	O236	O	0.038658	0.042196	0.276109
	O237	O	-0.004989	0.042208	0.307177
	O238	O	0.038662	0.210580	0.276342
	O239	O	0.038787	0.292369	0.242091
	O240	O	0.002136	0.292056	0.173512
	O241	O	0.058333	0.210170	0.277478
	O242	O	0.057564	0.291790	0.244835
	O243	O	0.101166	0.292207	0.213663
	O244	O	-0.004906	0.210795	0.307352
	O245	O	0.038816	0.460108	0.242046
	O246	O	0.002153	0.460275	0.173503
	O247	O	0.101170	0.460529	0.213659
	O248	O	0.057539	0.460004	0.244775
	O249	O	0.105471	0.209625	0.280267
	O250	O	-0.014405	0.376003	0.310996
	O251	O	0.110905	0.125793	0.210392
	C252	C	0.086563	0.215828	0.278354
	C253	C	0.091347	0.125773	0.278247
	C254	C	0.086529	0.036025	0.278473
	C255	C	0.077203	0.036129	0.278935
	C256	C	0.072424	0.126134	0.279100
	C257	C	0.077245	0.215939	0.278797
	C258	C	0.062339	0.126157	0.278080
	C259	C	0.101446	0.125723	0.279660
	C260	C	0.035004	0.126370	0.278847
	C261	C	0.025666	0.125952	0.285626
	C262	C	0.021168	0.215695	0.288506
	C263	C	0.012424	0.215922	0.294226
	C264	C	0.007943	0.126213	0.297225
	C265	C	0.012413	0.036332	0.294135
	C266	C	0.021165	0.036174	0.288389
	C267	C	-0.001324	0.126190	0.304456
	C268	C	0.035645	0.376316	0.236485
	C269	C	0.027721	0.376475	0.221905
	C270	C	0.023929	0.465223	0.215050
	C271	C	0.016652	0.465122	0.201360
	C272	C	0.012962	0.376216	0.194253
	C273	C	0.016715	0.287550	0.201227
	C274	C	0.023991	0.287665	0.214896
	C275	C	0.005220	0.376211	0.179294
	C276	C	0.061154	0.375754	0.241893
	C277	C	0.070432	0.375872	0.234616
	C278	C	0.074924	0.286260	0.231597
	C279	C	0.083684	0.286208	0.225826
	C280	C	0.088150	0.376236	0.222943
	C281	C	0.083659	0.465658	0.225865
	C282	C	0.074901	0.465696	0.231636
	C283	C	0.097486	0.376355	0.216194
	H284	H	0.087069	0.216688	0.223615
	H285	H	0.071524	0.216569	0.233987
	H286	H	0.090163	0.285566	0.278154
	H287	H	0.073610	0.285812	0.278957
	H288	H	0.048483	0.126286	0.235488
	H289	H	0.049194	0.376592	0.286255
	H290	H	-0.014187	0.376277	0.297837
	H291	H	0.111720	0.126037	0.223566
	H292	H	0.026843	0.218847	0.220172
	H293	H	0.013937	0.218372	0.195835
	H294	H	0.009048	0.285693	0.296474
	H295	H	0.024567	0.285234	0.286179
	H296	H	0.013832	0.533706	0.196050
	H297	H	0.026733	0.534070	0.220442
	H298	H	0.024547	-0.033213	0.286044
	H299	H	0.008984	-0.033075	0.296344
	H300	H	0.073601	-0.033914	0.279171
	H301	H	0.090144	-0.033786	0.278364
	H302	H	0.071555	0.535456	0.233947
	H303	H	0.087085	0.535021	0.223593
	Al304	Al	0.053628	-0.499166	0.357838
	Al305	Al	0.053609	-0.249344	0.357899
	Al306	Al	-0.014376	-0.249531	0.323196
	Al307	Al	-0.014358	-0.498529	0.323307
	O308	O	0.064246	-0.458574	0.373039
	O309	O	0.052993	-0.374052	0.345507
	O310	O	0.054238	-0.124337	0.370276
	O311	O	0.111356	-0.459814	0.375265
	O312	O	0.044574	-0.458165	0.374809
	O313	O	0.000156	-0.458542	0.403433
	O314	O	0.044575	-0.290328	0.374940
	O315	O	0.042949	-0.208634	0.342881
	O316	O	-0.004161	-0.207673	0.339852
	O317	O	0.064227	-0.290608	0.373054
	O318	O	0.062651	-0.208185	0.340890
	O319	O	0.107038	-0.208966	0.312126
	O320	O	0.000144	-0.290497	0.403327
	O321	O	0.042997	-0.040653	0.342727
	O322	O	-0.004150	-0.039254	0.339749
	O323	O	0.107095	-0.040822	0.312363
	O324	O	0.062714	-0.040061	0.340990
	O325	O	0.111366	-0.291484	0.375141
	O326	O	-0.009519	-0.124242	0.407967
	O327	O	0.116779	-0.374441	0.307568
	C328	C	0.092508	-0.285110	0.373686
	C329	C	0.097273	-0.375445	0.373592
	C330	C	0.092451	-0.465184	0.374014
	C331	C	0.083133	-0.464757	0.374563
	C332	C	0.078370	-0.374545	0.374682
	C333	C	0.083192	-0.284811	0.374272
	C334	C	0.068233	-0.374508	0.373623
	C335	C	0.107384	-0.375646	0.374679
	C336	C	0.040884	-0.374319	0.377567
	C337	C	0.031408	-0.374386	0.384085
	C338	C	0.026809	-0.284661	0.386642
	C339	C	0.017893	-0.284772	0.391499
	C340	C	0.013309	-0.374640	0.394115
	C341	C	0.017894	-0.464467	0.391506
	C342	C	0.026811	-0.464377	0.386611
	C343	C	0.003846	-0.374456	0.400721
	C344	C	0.038973	-0.124565	0.342145
	C345	C	0.028862	-0.123974	0.340962
	C346	C	0.024074	-0.033994	0.341066
	C347	C	0.014753	-0.033743	0.341488
	C348	C	0.009937	-0.123480	0.341726
	C349	C	0.014718	-0.213541	0.341475
	C350	C	0.024038	-0.213857	0.341048
	C351	C	-0.000174	-0.123520	0.340443
	C352	C	0.066366	-0.124310	0.338247
	C353	C	0.075824	-0.124563	0.331682
	C354	C	0.080375	-0.214514	0.328920
	C355	C	0.089298	-0.214580	0.324017
	C356	C	0.093942	-0.124619	0.321579
	C357	C	0.089385	-0.034689	0.324382
	C358	C	0.080460	-0.034586	0.329265
	C359	C	0.103370	-0.124918	0.314942
	H360	H	0.092724	-0.284493	0.322117
	H361	H	0.076916	-0.284541	0.330692
	H362	H	0.096115	-0.215123	0.373256
	H363	H	0.079593	-0.214612	0.374328
	H364	H	0.052200	-0.373992	0.332336
	H365	H	0.055018	-0.124240	0.383426
	H366	H	-0.010311	-0.123914	0.394774
	H367	H	0.117945	-0.373779	0.320663
	H368	H	0.027611	-0.283807	0.340861
	H369	H	0.011093	-0.283383	0.341729
	H370	H	0.014452	-0.214509	0.393284
	H371	H	0.030242	-0.214365	0.384740
	H372	H	0.011156	0.036013	0.341739
	H373	H	0.027714	0.036005	0.340918
	H374	H	0.030243	-0.534459	0.384735
	H375	H	0.014453	-0.534580	0.393335
	H376	H	0.079495	-0.534936	0.374906
	H377	H	0.096044	-0.535144	0.373900
	H378	H	0.077066	0.035553	0.331313
	H379	H	0.092845	0.035030	0.322720
	Al380	Al	0.053621	0.000519	0.357885
	Al381	Al	0.053608	0.250784	0.357758
	Al382	Al	-0.014373	0.250594	0.323263
	Al383	Al	-0.014414	0.001294	0.323117
	O384	O	0.064239	0.041904	0.372972
	O385	O	0.052939	0.125791	0.345512
	O386	O	0.054243	0.375497	0.370170
	O387	O	0.111346	0.040709	0.375316
	O388	O	0.044539	0.041418	0.374772
	O389	O	0.000160	0.042003	0.403407
	O390	O	0.044611	0.209640	0.374840
	O391	O	0.042975	0.291279	0.342668
	O392	O	-0.004150	0.291985	0.339995
	O393	O	0.064298	0.210249	0.372723
	O394	O	0.062603	0.292020	0.340730
	O395	O	0.107054	0.292111	0.312227
	O396	O	0.000175	0.209918	0.403562
	O397	O	0.042955	0.459754	0.342701
	O398	O	-0.004145	0.460203	0.339886
	O399	O	0.107096	0.460131	0.312328
	O400	O	0.062712	0.460098	0.341014
	O401	O	0.111371	0.208932	0.375279
	O402	O	-0.009510	0.375515	0.408175
	O403	O	0.116793	0.125818	0.307700
	C404	C	0.092501	0.215154	0.373742
	C405	C	0.097269	0.125033	0.373593
	C406	C	0.092470	0.034974	0.373941
	C407	C	0.083144	0.035425	0.374473
	C408	C	0.078368	0.125493	0.374587
	C409	C	0.083170	0.215491	0.374253
	C410	C	0.068257	0.125940	0.373424
	C411	C	0.107381	0.124785	0.374720
	C412	C	0.040880	0.125675	0.377430
	C413	C	0.031447	0.125773	0.384092
	C414	C	0.026867	0.215752	0.386748
	C415	C	0.017943	0.215877	0.391700
	C416	C	0.013298	0.126092	0.394155
	C417	C	0.017872	0.036181	0.391482
	C418	C	0.026804	0.036042	0.386519
	C419	C	0.003878	0.125991	0.400865
	C420	C	0.038980	0.375544	0.342134
	C421	C	0.028888	0.375673	0.340856
	C422	C	0.024108	0.465706	0.340960
	C423	C	0.014776	0.465898	0.341372
	C424	C	0.009967	0.375991	0.341643
	C425	C	0.014757	0.285987	0.341519
	C426	C	0.024079	0.285826	0.341094
	C427	C	-0.000139	0.376096	0.340531
	C428	C	0.066369	0.375947	0.338228
	C429	C	0.075822	0.375901	0.331647
	C430	C	0.080400	0.286186	0.328942
	C431	C	0.089314	0.286219	0.324025
	C432	C	0.093941	0.375972	0.321571
	C433	C	0.089364	0.465702	0.324263
	C434	C	0.080449	0.465592	0.329195
	C435	C	0.103366	0.376207	0.314938
	H436	H	0.092744	0.216188	0.322037
	H437	H	0.076930	0.216044	0.330730
	H438	H	0.096127	0.285129	0.373481
	H439	H	0.079605	0.285830	0.374404
	H440	H	0.052035	0.125290	0.332291
	H441	H	0.055181	0.375564	0.383289
	H442	H	-0.010287	0.374916	0.394987
	H443	H	0.117943	0.125814	0.320827
	H444	H	0.027675	0.215758	0.340967
	H445	H	0.011154	0.216012	0.341745
	H446	H	0.014518	0.286113	0.393646
	H447	H	0.030308	0.285833	0.384864
	H448	H	0.011183	0.535877	0.341483
	H449	H	0.027734	0.535669	0.340763
	H450	H	0.030213	-0.034057	0.384545
	H451	H	0.014416	-0.034165	0.393240
	H452	H	0.079521	-0.034506	0.374826
	H453	H	0.096048	-0.035244	0.373788
	H454	H	0.077025	0.535604	0.331200
	H455	H	0.092822	0.535805	0.322513
	Al456	Al	0.059572	-0.499681	0.452906
	Al457	Al	0.059535	-0.249746	0.452910
	Al458	Al	-0.008907	-0.249666	0.420334
	Al459	Al	-0.008864	-0.499188	0.420463
	O460	O	0.070213	-0.458735	0.467892
	O461	O	0.058822	-0.374449	0.440530
	O462	O	0.060244	-0.124738	0.465212
	O463	O	0.117321	-0.459733	0.469963
	O464	O	0.050559	-0.458822	0.469924
	O465	O	0.006129	-0.459183	0.498391
	O466	O	0.050579	-0.290854	0.470014
	O467	O	0.048852	-0.209144	0.437906
	O468	O	0.001784	-0.208897	0.435422
	O469	O	0.070258	-0.290470	0.467816
	O470	O	0.068543	-0.208687	0.435753
	O471	O	0.112969	-0.209606	0.407149
	O472	O	0.006083	-0.291113	0.498324
	O473	O	0.048872	-0.040663	0.437755
	O474	O	0.001780	-0.040720	0.435336
	O475	O	0.113023	-0.041535	0.407382
	O476	O	0.068600	-0.040844	0.435849
	O477	O	0.117370	-0.291367	0.470047
	O478	O	-0.003626	-0.124559	0.503034
	O479	O	0.122715	-0.375047	0.402557
	C480	C	0.098460	-0.284974	0.468386
	C481	C	0.103241	-0.375174	0.468280
	C482	C	0.098449	-0.465219	0.468654
	C483	C	0.089121	-0.464888	0.469186
	C484	C	0.084350	-0.374769	0.469340
	C485	C	0.089135	-0.284782	0.468919
	C486	C	0.074254	-0.374673	0.468391
	C487	C	0.113370	-0.375383	0.469482
	C488	C	0.046856	-0.374823	0.472642
	C489	C	0.037392	-0.375082	0.479112
	C490	C	0.032811	-0.285181	0.481802
	C491	C	0.023866	-0.285146	0.486621
	C492	C	0.019244	-0.374987	0.489096
	C493	C	0.023844	-0.464845	0.486523
	C494	C	0.032780	-0.464888	0.481680
	C495	C	0.009814	-0.375069	0.495716
	C496	C	0.044877	-0.124840	0.437289
	C497	C	0.034772	-0.124965	0.436187
	C498	C	0.029985	-0.034913	0.436280
	C499	C	0.020667	-0.034806	0.436808
	C500	C	0.015884	-0.124902	0.437106
	C501	C	0.020674	-0.214959	0.436966
	C502	C	0.029984	-0.215144	0.436473
	C503	C	0.005764	-0.124776	0.436010
	C504	C	0.072282	-0.124936	0.433118
	C505	C	0.081719	-0.125330	0.426555
	C506	C	0.086292	-0.215247	0.423868
	C507	C	0.095239	-0.215389	0.418954
	C508	C	0.099883	-0.125544	0.416558
	C509	C	0.095307	-0.035650	0.419135
	C510	C	0.086363	-0.035489	0.424061
	C511	C	0.109309	-0.125514	0.409951
	H512	H	0.098638	-0.285631	0.416984
	H513	H	0.082817	-0.285246	0.425638
	H514	H	0.102067	-0.214999	0.467942
	H515	H	0.085532	-0.214578	0.468928
	H516	H	0.057812	-0.374529	0.427351
	H517	H	0.061267	-0.124616	0.478333
	H518	H	-0.004491	-0.124631	0.489895
	H519	H	0.123605	-0.374881	0.415698
	H520	H	0.033594	-0.285483	0.436310
	H521	H	0.017067	-0.285241	0.437220
	H522	H	0.020426	-0.214956	0.488474
	H523	H	0.036247	-0.215017	0.479965
	H524	H	0.017044	0.035018	0.436973
	H525	H	0.033594	0.035252	0.435973
	H526	H	0.036206	-0.535081	0.479794
	H527	H	0.020376	-0.535244	0.488274
	H528	H	0.085513	-0.535053	0.469401
	H529	H	0.102036	-0.535507	0.468411
	H530	H	0.082994	0.034895	0.425929
	H531	H	0.098780	0.034538	0.417314
	Al532	Al	0.059528	0.000167	0.452780
	Al533	Al	0.059539	0.250319	0.452829
	Al534	Al	-0.008884	0.250785	0.420587
	Al535	Al	-0.008858	0.000669	0.420443
	O536	O	0.070121	0.041401	0.468063
	O537	O	0.058855	0.124665	0.440485
	O538	O	0.060223	0.375489	0.465207
	O539	O	0.117282	0.040770	0.470001
	O540	O	0.050471	0.040964	0.469764
	O541	O	0.006080	0.040747	0.498330
	O542	O	0.050510	0.209091	0.469820
	O543	O	0.048882	0.291498	0.437829
	O544	O	0.001749	0.291876	0.435690
	O545	O	0.070176	0.209693	0.467931
	O546	O	0.068511	0.291158	0.435583
	O547	O	0.112979	0.290507	0.407239
	O548	O	0.006101	0.208712	0.498554
	O549	O	0.048906	0.459572	0.437748
	O550	O	0.001778	0.460149	0.435588
	O551	O	0.113114	0.458616	0.407530
	O552	O	0.068608	0.459274	0.435967
	O553	O	0.117314	0.208760	0.470121
	O554	O	-0.003606	0.375174	0.502990
	O555	O	0.122729	0.124769	0.402721
	C556	C	0.098390	0.214560	0.468538
	C557	C	0.103186	0.124689	0.468461
	C558	C	0.098375	0.034709	0.468815
	C559	C	0.089046	0.034906	0.469358
	C560	C	0.084259	0.124982	0.469482
	C561	C	0.089067	0.214726	0.469073
	C562	C	0.074147	0.125321	0.468499
	C563	C	0.113293	0.124908	0.469515
	C564	C	0.046791	0.124994	0.472419
	C565	C	0.037332	0.125194	0.479028
	C566	C	0.032737	0.214857	0.481669
	C567	C	0.023815	0.214839	0.486586
	C568	C	0.019219	0.124793	0.489116
	C569	C	0.023822	0.035070	0.486540
	C570	C	0.032748	0.035170	0.481630
	C571	C	0.009773	0.124850	0.495745
	C572	C	0.044915	0.375701	0.437274
	C573	C	0.034785	0.375683	0.436187
	C574	C	0.030003	0.465746	0.436457
	C575	C	0.020669	0.465857	0.436944
	C576	C	0.015866	0.375916	0.437176
	C577	C	0.020650	0.285830	0.436983
	C578	C	0.029980	0.285738	0.436486
	C579	C	0.005744	0.375937	0.436123
	C580	C	0.072256	0.375197	0.433090
	C581	C	0.081710	0.375000	0.426487
	C582	C	0.086285	0.285001	0.423826
	C583	C	0.095235	0.285076	0.419071
	C584	C	0.099887	0.374895	0.416743
	C585	C	0.095290	0.464860	0.419290
	C586	C	0.086340	0.464762	0.424058
	C587	C	0.109342	0.374767	0.410061
	H588	H	0.098673	0.214698	0.417143
	H589	H	0.082852	0.214689	0.425588
	H590	H	0.101982	0.284459	0.468133
	H591	H	0.085483	0.284807	0.469178
	H592	H	0.057903	0.124690	0.427374
	H593	H	0.061152	0.375129	0.478381
	H594	H	-0.004421	0.375048	0.489758
	H595	H	0.123662	0.124951	0.415888
	H596	H	0.033582	0.215600	0.436341
	H597	H	0.017054	0.215820	0.437227
	H598	H	0.020402	0.285139	0.488566
	H599	H	0.036186	0.285040	0.479900
	H600	H	0.017072	0.535816	0.437141
	H601	H	0.033604	0.535744	0.436264
	H602	H	0.036197	-0.034972	0.479877
	H603	H	0.020410	-0.035270	0.488552
	H604	H	0.085435	-0.034916	0.469678
	H605	H	0.101990	-0.035503	0.468704
	H606	H	0.082903	0.535059	0.426025
	H607	H	0.098719	0.535159	0.417567
	Al608	Al	0.065477	-0.499754	0.547664
	Al609	Al	0.065462	-0.249637	0.547611
	Al610	Al	-0.002984	-0.249496	0.515308
	Al611	Al	-0.002953	-0.499854	0.515335
	O612	O	0.076080	-0.458637	0.562730
	O613	O	0.064754	-0.374978	0.535310
	O614	O	0.066150	-0.124322	0.559941
	O615	O	0.123238	-0.459961	0.564716
	O616	O	0.056448	-0.458621	0.564641
	O617	O	0.011946	-0.458550	0.592952
	O618	O	0.056367	-0.290549	0.564515
	O619	O	0.054827	-0.208682	0.532594
	O620	O	0.007705	-0.209224	0.530358
	O621	O	0.076117	-0.290429	0.562692
	O622	O	0.074471	-0.208543	0.530604
	O623	O	0.118939	-0.209120	0.502126
	O624	O	0.011963	-0.290618	0.593100
	O625	O	0.054823	-0.040319	0.532419
	O626	O	0.007704	-0.040938	0.530587
	O627	O	0.118877	-0.041049	0.501839
	O628	O	0.074515	-0.040362	0.530713
	O629	O	0.123233	-0.291720	0.564444
	O630	O	0.002207	-0.124583	0.597749
	O631	O	0.128689	-0.375539	0.497498
	C632	C	0.104352	-0.285439	0.563380
	C633	C	0.109114	-0.375620	0.563122
	C634	C	0.104298	-0.465285	0.563493
	C635	C	0.094969	-0.465155	0.564098
	C636	C	0.090223	-0.374983	0.564282
	C637	C	0.095033	-0.285184	0.564005
	C638	C	0.080095	-0.374567	0.563246
	C639	C	0.119226	-0.375776	0.564058
	C640	C	0.052690	-0.374682	0.567153
	C641	C	0.043248	-0.374511	0.573753
	C642	C	0.038625	-0.284764	0.576328
	C643	C	0.029706	-0.284705	0.581177
	C644	C	0.025079	-0.374667	0.583695
	C645	C	0.029691	-0.464474	0.581113
	C646	C	0.038605	-0.464436	0.576241
	C647	C	0.015671	-0.374519	0.590431
	C648	C	0.050836	-0.124558	0.531996
	C649	C	0.040716	-0.124907	0.530833
	C650	C	0.035916	-0.035055	0.531109
	C651	C	0.026598	-0.035313	0.531694
	C652	C	0.021809	-0.125390	0.531955
	C653	C	0.026603	-0.215371	0.531696
	C654	C	0.035938	-0.215093	0.531114
	C655	C	0.011684	-0.125160	0.531011
	C656	C	0.078183	-0.124488	0.527985
	C657	C	0.087636	-0.124668	0.521365
	C658	C	0.092206	-0.214518	0.518752
	C659	C	0.101133	-0.214661	0.513886
	C660	C	0.105759	-0.124810	0.511330
	C661	C	0.101173	-0.034889	0.513961
	C662	C	0.092245	-0.034821	0.518841
	C663	C	0.115220	-0.125112	0.504712
	H664	H	0.104520	-0.285051	0.511935
	H665	H	0.088745	-0.284814	0.520528
	H666	H	0.107956	-0.215218	0.563074
	H667	H	0.091462	-0.214753	0.564218
	H668	H	0.063680	-0.375046	0.522131
	H669	H	0.067101	-0.124166	0.573074
	H670	H	0.001074	-0.124419	0.584651
	H671	H	0.129733	-0.375207	0.510632
	H672	H	0.039554	-0.284815	0.530940
	H673	H	0.022999	-0.285583	0.531998
	H674	H	0.026306	-0.214640	0.583152
	H675	H	0.042104	-0.214861	0.574551
	H676	H	0.023001	0.034770	0.531968
	H677	H	0.039508	0.035365	0.530891
	H678	H	0.042051	-0.534558	0.574410
	H679	H	0.026226	-0.534561	0.583134
	H680	H	0.091359	-0.535200	0.564392
	H681	H	0.107868	-0.535496	0.563232
	H682	H	0.088808	0.035393	0.520665
	H683	H	0.104610	0.035178	0.512053
	Al684	Al	0.065467	0.000257	0.547596
	Al685	Al	0.065457	0.250335	0.547570
	Al686	Al	-0.002978	0.250185	0.515416
	Al687	Al	-0.002938	0.000331	0.515495
	O688	O	0.076106	0.041752	0.562601
	O689	O	0.064784	0.125408	0.535237
	O690	O	0.066116	0.375151	0.559954
	O691	O	0.123257	0.040255	0.564608
	O692	O	0.056394	0.041352	0.564444
	O693	O	0.011889	0.041869	0.593053
	O694	O	0.056398	0.209282	0.564531
	O695	O	0.054813	0.290969	0.532485
	O696	O	0.007703	0.290820	0.530428
	O697	O	0.076114	0.209634	0.562627
	O698	O	0.074488	0.291681	0.530550
	O699	O	0.118946	0.290697	0.502091
	O700	O	0.011996	0.209828	0.593165
	O701	O	0.054827	0.459463	0.532440
	O702	O	0.007690	0.459096	0.530355
	O703	O	0.118903	0.458845	0.502157
	O704	O	0.074531	0.459657	0.530697
	O705	O	0.123286	0.208661	0.564557
	O706	O	0.002221	0.375222	0.597765
	O707	O	0.128702	0.124546	0.497409
	C708	C	0.104400	0.215248	0.563391
	C709	C	0.109161	0.125108	0.563113
	C710	C	0.104353	0.035332	0.563394
	C711	C	0.095013	0.035575	0.563978
	C712	C	0.090235	0.125635	0.564160
	C713	C	0.095051	0.215474	0.564009
	C714	C	0.080118	0.125637	0.563173
	C715	C	0.119269	0.124582	0.564073
	C716	C	0.052714	0.125247	0.567219
	C717	C	0.043236	0.125092	0.573731
	C718	C	0.038657	0.215098	0.576374
	C719	C	0.029718	0.215025	0.581223
	C720	C	0.025095	0.125315	0.583818
	C721	C	0.029674	0.035340	0.581165
	C722	C	0.038615	0.035396	0.576295
	C723	C	0.015652	0.125683	0.590428
	C724	C	0.050836	0.375205	0.531920
	C725	C	0.040720	0.375282	0.530763
	C726	C	0.035946	0.465403	0.531041
	C727	C	0.026611	0.465387	0.531624
	C728	C	0.021807	0.375353	0.531948
	C729	C	0.026587	0.285356	0.531800
	C730	C	0.035917	0.285298	0.531191
	C731	C	0.011699	0.375088	0.530939
	C732	C	0.078218	0.375589	0.527929
	C733	C	0.087619	0.375368	0.521207
	C734	C	0.092191	0.285373	0.518580
	C735	C	0.101122	0.285038	0.513674
	C736	C	0.105766	0.374582	0.511253
	C737	C	0.101189	0.464666	0.513898
	C738	C	0.092261	0.465047	0.518792
	C739	C	0.115201	0.374696	0.504706
	H740	H	0.104541	0.214941	0.511736
	H741	H	0.088731	0.215172	0.520395
	H742	H	0.108006	0.285411	0.563133
	H743	H	0.091470	0.285943	0.564245
	H744	H	0.063764	0.125717	0.522058
	H745	H	0.067150	0.375509	0.573083
	H746	H	0.001234	0.375144	0.584474
	H747	H	0.129864	0.124544	0.510565
	H748	H	0.039510	0.215166	0.530957
	H749	H	0.022978	0.215064	0.532119
	H750	H	0.026261	0.285066	0.583017
	H751	H	0.042080	0.285487	0.574542
	H752	H	0.023024	0.535537	0.531762
	H753	H	0.039551	0.535282	0.530666
	H754	H	0.042069	-0.034824	0.574404
	H755	H	0.026231	-0.034823	0.582898
	H756	H	0.091412	-0.034516	0.564203
	H757	H	0.107906	-0.034788	0.563109
	H758	H	0.088846	0.535161	0.520759
	H759	H	0.104644	0.534607	0.512144
	Al760	Al	0.071378	-0.500196	0.642364
	Al761	Al	0.071370	-0.249813	0.642465
	Al762	Al	0.002971	-0.249620	0.610084
	Al763	Al	0.002936	-0.499623	0.610073
	O764	O	0.082033	-0.459206	0.657561
	O765	O	0.070763	-0.374571	0.630078
	O766	O	0.072062	-0.124946	0.654874
	O767	O	0.129197	-0.459328	0.660007
	O768	O	0.062361	-0.458895	0.659335
	O769	O	0.017921	-0.459388	0.687982
	O770	O	0.062329	-0.290671	0.659383
	O771	O	0.060727	-0.209425	0.627314
	O772	O	0.013597	-0.208604	0.625121
	O773	O	0.082033	-0.290853	0.657479
	O774	O	0.080427	-0.209043	0.625585
	O775	O	0.124766	-0.209687	0.596651
	O776	O	0.017909	-0.291319	0.687925
	O777	O	0.060778	-0.041155	0.627474
	O778	O	0.013613	-0.040220	0.625027
	O779	O	0.124856	-0.041502	0.596838
	O780	O	0.080399	-0.040986	0.625373
	O781	O	0.129163	-0.291118	0.660243
	O782	O	0.008235	-0.125293	0.692574
	O783	O	0.134463	-0.375548	0.592086
	C784	C	0.110294	-0.285261	0.658733
	C785	C	0.115085	-0.375187	0.658557
	C786	C	0.110276	-0.465025	0.658967
	C787	C	0.100940	-0.465040	0.659369
	C788	C	0.096142	-0.375073	0.659323
	C789	C	0.100963	-0.285230	0.659143
	C790	C	0.086039	-0.375027	0.658064
	C791	C	0.125193	-0.375392	0.659601
	C792	C	0.058631	-0.374881	0.661992
	C793	C	0.049207	-0.375247	0.668698
	C794	C	0.044584	-0.285506	0.671273
	C795	C	0.035666	-0.285575	0.676147
	C796	C	0.031065	-0.375312	0.678717
	C797	C	0.035685	-0.465142	0.676193
	C798	C	0.044609	-0.465078	0.671308
	C799	C	0.021634	-0.375189	0.685306
	C800	C	0.056758	-0.125185	0.626822
	C801	C	0.046640	-0.124808	0.625698
	C802	C	0.041859	-0.034863	0.625932
	C803	C	0.032529	-0.034583	0.626511
	C804	C	0.027732	-0.124428	0.626777
	C805	C	0.032522	-0.214337	0.626592
	C806	C	0.041851	-0.214650	0.625999
	C807	C	0.017594	-0.124479	0.625657
	C808	C	0.084116	-0.125058	0.622795
	C809	C	0.093568	-0.124982	0.616107
	C810	C	0.098160	-0.214867	0.613584
	C811	C	0.107080	-0.215003	0.608660
	C812	C	0.111670	-0.125237	0.606058
	C813	C	0.107098	-0.035414	0.608659
	C814	C	0.098182	-0.035233	0.613586
	C815	C	0.121115	-0.125439	0.599404
	H816	H	0.110507	-0.285187	0.606836
	H817	H	0.094727	-0.284924	0.615513
	H818	H	0.113887	-0.215168	0.658433
	H819	H	0.097381	-0.215312	0.659179
	H820	H	0.069899	-0.374908	0.616836
	H821	H	0.072939	-0.125183	0.668090
	H822	H	0.007220	-0.125012	0.679442
	H823	H	0.135126	-0.375659	0.605335
	H824	H	0.045428	-0.284832	0.625801
	H825	H	0.028904	-0.284415	0.626919
	H826	H	0.032203	-0.215546	0.678072
	H827	H	0.048024	-0.215152	0.669473
	H828	H	0.028953	0.035543	0.626780
	H829	H	0.045485	0.035277	0.625654
	H830	H	0.048066	-0.535056	0.669480
	H831	H	0.032252	-0.535349	0.678130
	H832	H	0.097318	-0.534919	0.659638
	H833	H	0.113877	-0.535051	0.658847
	H834	H	0.094793	0.035128	0.615517
	H835	H	0.110542	0.034558	0.606810
	Al836	Al	0.071429	-0.000338	0.642575
	Al837	Al	0.071398	0.249968	0.642382
	Al838	Al	0.002931	0.250243	0.610145
	Al839	Al	0.002945	0.000458	0.610171
	O840	O	0.082071	0.041008	0.657604
	O841	O	0.070742	0.124702	0.630163
	O842	O	0.071997	0.375023	0.654793
	O843	O	0.129138	0.040375	0.660134
	O844	O	0.062345	0.041062	0.659449
	O845	O	0.017934	0.040306	0.688047
	O846	O	0.062286	0.209043	0.659311
	O847	O	0.060726	0.290758	0.627416
	O848	O	0.013571	0.291500	0.625199
	O849	O	0.082078	0.209297	0.657330
	O850	O	0.080393	0.290746	0.625350
	O851	O	0.124791	0.290379	0.596813
	O852	O	0.017871	0.208365	0.687849
	O853	O	0.060749	0.458968	0.627275
	O854	O	0.013617	0.459709	0.624964
	O855	O	0.124798	0.458358	0.596745
	O856	O	0.080341	0.458796	0.625220
	O857	O	0.129159	0.208568	0.660203
	O858	O	0.008174	0.374909	0.692440
	O859	O	0.134500	0.124650	0.592153
	C860	C	0.110282	0.214877	0.658634
	C861	C	0.115054	0.124756	0.658478
	C862	C	0.110265	0.034917	0.658919
	C863	C	0.100942	0.034970	0.659415
	C864	C	0.096168	0.125057	0.659391
	C865	C	0.100965	0.214930	0.659115
	C866	C	0.086047	0.125242	0.658078
	C867	C	0.125167	0.124504	0.659522
	C868	C	0.058603	0.125055	0.662017
	C869	C	0.049150	0.124928	0.668561
	C870	C	0.044549	0.214616	0.671245
	C871	C	0.035639	0.214266	0.676170
	C872	C	0.031036	0.124386	0.678702
	C873	C	0.035638	0.034761	0.676159
	C874	C	0.044557	0.035150	0.671209
	C875	C	0.021581	0.124303	0.685297
	C876	C	0.056745	0.374894	0.626831
	C877	C	0.046636	0.375131	0.625767
	C878	C	0.041857	0.465258	0.626000
	C879	C	0.032530	0.465610	0.626484
	C880	C	0.027703	0.375611	0.626713
	C881	C	0.032501	0.285550	0.626528
	C882	C	0.041830	0.285189	0.626012
	C883	C	0.017592	0.375459	0.625585
	C884	C	0.084081	0.374826	0.622659
	C885	C	0.093520	0.374944	0.616112
	C886	C	0.098098	0.285108	0.613492
	C887	C	0.107034	0.284935	0.608613
	C888	C	0.111667	0.374663	0.606180
	C889	C	0.107080	0.464518	0.608771
	C890	C	0.098140	0.464715	0.613652
	C891	C	0.121088	0.374381	0.599457
	H892	H	0.110429	0.214437	0.606697
	H893	H	0.094659	0.214784	0.615342
	H894	H	0.113891	0.284954	0.658326
	H895	H	0.097374	0.285049	0.659242
	H896	H	0.069674	0.123793	0.617022
	H897	H	0.072740	0.375021	0.667980
	H898	H	0.007177	0.375235	0.679176
	H899	H	0.135235	0.124605	0.605368
	H900	H	0.045442	0.215035	0.625850
	H901	H	0.028900	0.215553	0.626828
	H902	H	0.032195	0.284247	0.678117
	H903	H	0.048005	0.284719	0.669477
	H904	H	0.028933	0.535568	0.626695
	H905	H	0.045484	0.535315	0.625846
	H906	H	0.048006	-0.035080	0.669476
	H907	H	0.032216	-0.035204	0.678107
	H908	H	0.097364	-0.035043	0.659790
	H909	H	0.113852	-0.035065	0.658806
	H910	H	0.094741	0.534836	0.615645
	H911	H	0.110524	0.534671	0.607020
	Al912	Al	0.076838	-0.500209	0.739099
	Al913	Al	0.076856	-0.251229	0.738940
	Al914	Al	0.008876	-0.250336	0.704947
	Al915	Al	0.008870	-0.500194	0.704823
	O916	O	0.086138	-0.459359	0.757821
	O917	O	0.076485	-0.375983	0.726829
	O918	O	0.076816	-0.125328	0.751159
	O919	O	0.122805	-0.458878	0.826364
	O920	O	0.067430	-0.459224	0.755050
	O921	O	0.023744	-0.459070	0.786175
	O922	O	0.067337	-0.290755	0.754870
	O923	O	0.066621	-0.209564	0.722239
	O924	O	0.019521	-0.209563	0.719934
	O925	O	0.086105	-0.291510	0.757776
	O926	O	0.086258	-0.209704	0.723619
	O927	O	0.129925	-0.209499	0.692789
	O928	O	0.023772	-0.290840	0.786398
	O929	O	0.066668	-0.041116	0.722249
	O930	O	0.019511	-0.041310	0.720091
	O931	O	0.129901	-0.041012	0.692736
	O932	O	0.086260	-0.041332	0.723559
	O933	O	0.122784	-0.290927	0.826437
	O934	O	0.014055	-0.125278	0.789716
	O935	O	0.139331	-0.375936	0.689040
	C936	C	0.108225	-0.286217	0.798623
	C937	C	0.112026	-0.374896	0.805471
	C938	C	0.108393	-0.463789	0.798205
	C939	C	0.101107	-0.463705	0.784548
	C940	C	0.097253	-0.374982	0.777841
	C941	C	0.100934	-0.286106	0.784985
	C942	C	0.089288	-0.375283	0.763378
	C943	C	0.119773	-0.375034	0.820517
	C944	C	0.063768	-0.375056	0.757806
	C945	C	0.054501	-0.374969	0.765072
	C946	C	0.050032	-0.285131	0.768049
	C947	C	0.041272	-0.285329	0.773869
	C948	C	0.036760	-0.375056	0.776794
	C949	C	0.041268	-0.464881	0.774049
	C950	C	0.050024	-0.464788	0.768253
	C951	C	0.027416	-0.374926	0.783640
	C952	C	0.062639	-0.125220	0.721681
	C953	C	0.052538	-0.125228	0.720922
	C954	C	0.047758	-0.035211	0.721181
	C955	C	0.038434	-0.035307	0.721734
	C956	C	0.033629	-0.125168	0.721978
	C957	C	0.038405	-0.215213	0.721579
	C958	C	0.047730	-0.215149	0.721029
	C959	C	0.023501	-0.125393	0.720686
	C960	C	0.089926	-0.125444	0.721038
	C961	C	0.099281	-0.125690	0.714311
	C962	C	0.103787	-0.215372	0.711451
	C963	C	0.112543	-0.215063	0.705757
	C964	C	0.117033	-0.125148	0.702837
	C965	C	0.112526	-0.035349	0.705806
	C966	C	0.103769	-0.035757	0.711502
	C967	C	0.126309	-0.125226	0.695608
	H968	H	0.115958	-0.284689	0.703562
	H969	H	0.100368	-0.285019	0.713637
	H970	H	0.110983	-0.217259	0.804095
	H971	H	0.098028	-0.217427	0.779835
	H972	H	0.075451	-0.376121	0.713744
	H973	H	0.076438	-0.125250	0.764368
	H974	H	0.013235	-0.124621	0.776513
	H975	H	0.139221	-0.376350	0.702251
	H976	H	0.051347	-0.285336	0.720765
	H977	H	0.034811	-0.285349	0.721796
	H978	H	0.037867	-0.215861	0.776118
	H979	H	0.053408	-0.215331	0.765786
	H980	H	0.034823	0.034886	0.722121
	H981	H	0.051327	0.034971	0.721058
	H982	H	0.053437	-0.534368	0.766109
	H983	H	0.037882	-0.534358	0.776434
	H984	H	0.098363	-0.532447	0.779054
	H985	H	0.111287	-0.532622	0.803400
	H986	H	0.100354	0.033762	0.713731
	H987	H	0.115901	0.034330	0.703628
	Al988	Al	0.076865	-0.000020	0.738929
	Al989	Al	0.076807	0.249197	0.738981
	Al990	Al	0.008858	0.249757	0.704785
	Al991	Al	0.008865	-0.000575	0.704925
	O992	O	0.086141	0.040452	0.757625
	O993	O	0.076574	0.124684	0.726722
	O994	O	0.076848	0.374327	0.751344
	O995	O	0.122817	0.041019	0.826404
	O996	O	0.067430	0.040562	0.754971
	O997	O	0.023827	0.039903	0.786492
	O998	O	0.067346	0.208838	0.754798
	O999	O	0.066592	0.290228	0.722313
	O1000	O	0.019490	0.290140	0.719900
	O1001	O	0.086143	0.208607	0.757744
	O1002	O	0.086286	0.290504	0.723747
	O1003	O	0.129897	0.290182	0.692885
	O1004	O	0.023764	0.207872	0.786244
	O1005	O	0.066592	0.458716	0.722492
	O1006	O	0.019447	0.458552	0.720118
	O1007	O	0.129902	0.458669	0.692700
	O1008	O	0.086305	0.458805	0.723804
	O1009	O	0.122782	0.209507	0.826357
	O1010	O	0.014035	0.374446	0.789424
	O1011	O	0.139297	0.124314	0.689162
	C1012	C	0.108303	0.214004	0.798349
	C1013	C	0.112017	0.125022	0.805508
	C1014	C	0.108304	0.035738	0.798477
	C1015	C	0.101022	0.035539	0.784810
	C1016	C	0.097272	0.124467	0.777754
	C1017	C	0.101019	0.213683	0.784683
	C1018	C	0.089308	0.124491	0.763262
	C1019	C	0.119756	0.125137	0.820578
	C1020	C	0.063787	0.124595	0.757830
	C1021	C	0.054537	0.124263	0.765162
	C1022	C	0.050018	0.213858	0.768003
	C1023	C	0.041269	0.213743	0.773762
	C1024	C	0.036800	0.124145	0.776896
	C1025	C	0.041316	0.034528	0.774136
	C1026	C	0.050065	0.034671	0.768334
	C1027	C	0.027465	0.123924	0.783764
	C1028	C	0.062593	0.374469	0.721880
	C1029	C	0.052494	0.374472	0.720949
	C1030	C	0.047716	0.464421	0.721350
	C1031	C	0.038377	0.464508	0.721874
	C1032	C	0.033583	0.374575	0.722032
	C1033	C	0.038378	0.284667	0.721726
	C1034	C	0.047712	0.284503	0.721183
	C1035	C	0.023463	0.374519	0.720656
	C1036	C	0.089970	0.374545	0.721128
	C1037	C	0.099302	0.374801	0.714424
	C1038	C	0.103780	0.284975	0.711476
	C1039	C	0.112549	0.284900	0.705759
	C1040	C	0.117026	0.374703	0.702856
	C1041	C	0.112574	0.464640	0.705967
	C1042	C	0.103801	0.464623	0.711695
	C1043	C	0.126292	0.374552	0.695627
	H1044	H	0.115913	0.215007	0.703346
	H1045	H	0.100396	0.215257	0.713673
	H1046	H	0.111108	0.283019	0.803668
	H1047	H	0.098199	0.282649	0.779334
	H1048	H	0.075953	0.124598	0.713594
	H1049	H	0.076818	0.374390	0.764566
	H1050	H	0.013417	0.374241	0.776273
	H1051	H	0.139018	0.124414	0.702364
	H1052	H	0.051299	0.214336	0.720930
	H1053	H	0.034770	0.214468	0.721865
	H1054	H	0.037873	0.283412	0.776026
	H1055	H	0.053390	0.283467	0.765660
	H1056	H	0.034809	0.534616	0.722196
	H1057	H	0.051326	0.534425	0.721236
	H1058	H	0.053472	-0.035470	0.766174
	H1059	H	0.037935	-0.035165	0.776591
	H1060	H	0.098188	-0.033523	0.779520
	H1061	H	0.111089	-0.033223	0.803920
	H1062	H	0.100431	0.534313	0.714066
	H1063	H	0.115950	0.534642	0.703756
	Al1064	Al	0.068752	-0.500082	0.909988
	Al1065	Al	0.068747	-0.250209	0.910019
	Al1066	Al	0.014356	-0.249856	0.801883
	Al1067	Al	0.014346	-0.500794	0.801615
	O1068	O	0.076950	-0.459237	0.931115
	O1069	O	0.069419	-0.375232	0.898130
	O1070	O	0.068035	-0.124806	0.921904
	O1071	O	0.110635	-0.458719	1.006524
	O1072	O	0.058730	-0.459097	0.923540
	O1073	O	0.016233	-0.459099	0.958749
	O1074	O	0.058671	-0.290784	0.923385
	O1075	O	0.060460	-0.209080	0.889053
	O1076	O	0.023629	-0.209750	0.820738
	O1077	O	0.076963	-0.291219	0.931173
	O1078	O	0.078764	-0.209075	0.896515
	O1079	O	0.121034	-0.209063	0.860346
	O1080	O	0.016249	-0.291042	0.958819
	O1081	O	0.060389	-0.040664	0.889043
	O1082	O	0.023669	-0.041647	0.820725
	O1083	O	0.121063	-0.040749	0.860444
	O1084	O	0.078801	-0.040637	0.896541
	O1085	O	0.110629	-0.290602	1.006489
	O1086	O	0.006848	-0.124728	0.960475
	O1087	O	0.130477	-0.374795	0.859092
	C1088	C	0.097136	-0.286173	0.976325
	C1089	C	0.100538	-0.375079	0.984051
	C1090	C	0.097071	-0.464245	0.976452
	C1091	C	0.090373	-0.464210	0.961421
	C1092	C	0.086993	-0.375276	0.953670
	C1093	C	0.090440	-0.286245	0.961301
	C1094	C	0.079814	-0.375222	0.937409
	C1095	C	0.107773	-0.374938	1.000247
	C1096	C	0.055114	-0.375050	0.926318
	C1097	C	0.046013	-0.374816	0.933966
	C1098	C	0.041679	-0.285436	0.937409
	C1099	C	0.033164	-0.285586	0.944322
	C1100	C	0.028853	-0.374880	0.947884
	C1101	C	0.033168	-0.464131	0.944413
	C1102	C	0.041691	-0.464061	0.937483
	C1103	C	0.019809	-0.374997	0.955782
	C1104	C	0.057389	-0.125090	0.883262
	C1105	C	0.049667	-0.125593	0.868182
	C1106	C	0.045911	-0.036514	0.861225
	C1107	C	0.038585	-0.036651	0.847628
	C1108	C	0.034827	-0.125749	0.840722
	C1109	C	0.038590	-0.214802	0.847684
	C1110	C	0.045917	-0.214772	0.861278
	C1111	C	0.026824	-0.125769	0.826249
	C1112	C	0.082332	-0.124853	0.893597
	C1113	C	0.091387	-0.124587	0.885684
	C1114	C	0.095668	-0.213908	0.882022
	C1115	C	0.104133	-0.214201	0.874849
	C1116	C	0.108439	-0.125081	0.871282
	C1117	C	0.104140	-0.035685	0.874854
	C1118	C	0.095665	-0.035238	0.882014
	C1119	C	0.117503	-0.124683	0.863393
	H1120	H	0.107403	-0.282884	0.872017
	H1121	H	0.092358	-0.282739	0.884891
	H1122	H	0.099758	-0.216991	0.982099
	H1123	H	0.087894	-0.217190	0.955401
	H1124	H	0.070037	-0.375125	0.885053
	H1125	H	0.067430	-0.125464	0.934964
	H1126	H	0.007443	-0.124059	0.947413
	H1127	H	0.129760	-0.375486	0.872054
	H1128	H	0.048688	-0.283787	0.866666
	H1129	H	0.035785	-0.283827	0.842442
	H1130	H	0.029858	-0.216989	0.947059
	H1131	H	0.044959	-0.216606	0.934611
	H1132	H	0.035731	0.032145	0.842318
	H1133	H	0.048691	0.032585	0.866620
	H1134	H	0.044998	-0.532822	0.934678
	H1135	H	0.029860	-0.533099	0.947227
	H1136	H	0.087780	-0.533343	0.955632
	H1137	H	0.099617	-0.533594	0.982316
	H1138	H	0.092389	0.033876	0.884890
	H1139	H	0.107448	0.033105	0.872009
	Al1140	Al	0.068715	0.000218	0.909978
	Al1141	Al	0.068690	0.249958	0.909887
	Al1142	Al	0.014365	0.249946	0.801630
	Al1143	Al	0.014405	-0.000881	0.801975
	O1144	O	0.076895	0.041570	0.931098
	O1145	O	0.069362	0.125055	0.898044
	O1146	O	0.068005	0.374800	0.921776
	O1147	O	0.110608	0.041783	1.006472
	O1148	O	0.058655	0.040999	0.923320
	O1149	O	0.016197	0.041081	0.958826
	O1150	O	0.058633	0.209380	0.923337
	O1151	O	0.060319	0.291021	0.889090
	O1152	O	0.023665	0.290470	0.820415
	O1153	O	0.077002	0.209190	0.930926
	O1154	O	0.078729	0.290672	0.896327
	O1155	O	0.121127	0.290623	0.860763
	O1156	O	0.016200	0.209501	0.958725
	O1157	O	0.060316	0.459265	0.889165
	O1158	O	0.023628	0.458358	0.820450
	O1159	O	0.121064	0.459127	0.860640
	O1160	O	0.078752	0.459053	0.896376
	O1161	O	0.110577	0.209701	1.006469
	O1162	O	0.006808	0.375188	0.960351
	O1163	O	0.130490	0.124781	0.859142
	C1164	C	0.097129	0.214197	0.976195
	C1165	C	0.100519	0.125390	0.984017
	C1166	C	0.097062	0.036457	0.976396
	C1167	C	0.090381	0.036390	0.961336
	C1168	C	0.086987	0.125276	0.953550
	C1169	C	0.090452	0.214177	0.961144
	C1170	C	0.079778	0.125420	0.937339
	C1171	C	0.107707	0.125778	1.000238
	C1172	C	0.055089	0.125067	0.926284
	C1173	C	0.046009	0.124992	0.934076
	C1174	C	0.041664	0.214596	0.937464
	C1175	C	0.033148	0.214747	0.944432
	C1176	C	0.028845	0.125237	0.948026
	C1177	C	0.033181	0.035752	0.944529
	C1178	C	0.041696	0.035432	0.937585
	C1179	C	0.019768	0.125110	0.955861
	C1180	C	0.057251	0.375161	0.883355
	C1181	C	0.049509	0.375143	0.868300
	C1182	C	0.045736	0.463886	0.861298
	C1183	C	0.038461	0.463796	0.847580
	C1184	C	0.034737	0.374867	0.840599
	C1185	C	0.038511	0.285983	0.847567
	C1186	C	0.045785	0.286096	0.861268
	C1187	C	0.026796	0.374469	0.825979
	C1188	C	0.082302	0.374997	0.893420
	C1189	C	0.091374	0.374836	0.885573
	C1190	C	0.095680	0.285311	0.882069
	C1191	C	0.104168	0.285197	0.875014
	C1192	C	0.108472	0.374606	0.871423
	C1193	C	0.104166	0.463970	0.874983
	C1194	C	0.095693	0.464181	0.882035
	C1195	C	0.117550	0.374799	0.863643
	H1196	H	0.107475	0.216244	0.872169
	H1197	H	0.092380	0.216463	0.885044
	H1198	H	0.099711	0.283319	0.982001
	H1199	H	0.087886	0.283299	0.955239
	H1200	H	0.069951	0.124680	0.885009
	H1201	H	0.067137	0.374386	0.934746
	H1202	H	0.007435	0.375452	0.947312
	H1203	H	0.129840	0.124158	0.872054
	H1204	H	0.048596	0.217293	0.866677
	H1205	H	0.035750	0.217241	0.842167
	H1206	H	0.029848	0.283810	0.947209
	H1207	H	0.044953	0.283665	0.934554
	H1208	H	0.035644	0.532334	0.842265
	H1209	H	0.048505	0.532493	0.866723
	H1210	H	0.044986	-0.033579	0.934833
	H1211	H	0.029860	-0.033145	0.947414
	H1212	H	0.087736	-0.032824	0.955608
	H1213	H	0.099589	-0.032358	0.982393
	H1214	H	0.092420	0.533085	0.884839
	H1215	H	0.107450	0.533007	0.872155
	Al1216	Al	0.173159	-0.499758	0.135794
	Al1217	Al	0.173117	-0.248701	0.135948
	Al1218	Al	0.118828	-0.249297	0.027714
	Al1219	Al	0.118821	-0.499237	0.027751
	O1220	O	0.183340	-0.458002	0.152562
	O1221	O	0.173119	-0.373909	0.123622
	O1222	O	0.173479	-0.124031	0.148119
	O1223	O	0.230464	-0.459101	0.155399
	O1224	O	0.163705	-0.458528	0.151146
	O1225	O	0.120019	-0.457683	0.182366
	O1226	O	0.163698	-0.290240	0.151347
	O1227	O	0.163841	-0.207872	0.117115
	O1228	O	0.127171	-0.208175	0.048460
	O1229	O	0.183369	-0.289771	0.152531
	O1230	O	0.182578	-0.208153	0.119997
	O1231	O	0.226193	-0.208125	0.088631
	O1232	O	0.120089	-0.289294	0.182437
	O1233	O	0.163871	-0.039946	0.117239
	O1234	O	0.127159	-0.039757	0.048503
	O1235	O	0.226200	-0.039936	0.088615
	O1236	O	0.182615	-0.039781	0.120044
	O1237	O	0.230464	-0.290692	0.155308
	O1238	O	0.110560	-0.124348	0.185938
	O1239	O	0.235896	-0.374250	0.085375
	C1240	C	0.211607	-0.284586	0.153434
	C1241	C	0.216379	-0.374695	0.153326
	C1242	C	0.211560	-0.464627	0.153601
	C1243	C	0.202236	-0.464438	0.154035
	C1244	C	0.197460	-0.374178	0.154110
	C1245	C	0.202280	-0.284354	0.153857
	C1246	C	0.187363	-0.373926	0.153106
	C1247	C	0.226477	-0.374948	0.154741
	C1248	C	0.160014	-0.374455	0.153825
	C1249	C	0.150676	-0.374268	0.160604
	C1250	C	0.146197	-0.284377	0.163578
	C1251	C	0.137434	-0.284410	0.169331
	C1252	C	0.132935	-0.374205	0.172240
	C1253	C	0.137397	-0.463997	0.169204
	C1254	C	0.146172	-0.464078	0.163433
	C1255	C	0.123663	-0.373571	0.179527
	C1256	C	0.160693	-0.123800	0.111646
	C1257	C	0.152720	-0.123678	0.097047
	C1258	C	0.148965	-0.034585	0.090059
	C1259	C	0.141694	-0.034770	0.076400
	C1260	C	0.137941	-0.123940	0.069419
	C1261	C	0.141684	-0.212926	0.076415
	C1262	C	0.148962	-0.212892	0.090064
	C1263	C	0.130227	-0.123878	0.054272
	C1264	C	0.186230	-0.123898	0.117184
	C1265	C	0.195486	-0.124344	0.109913
	C1266	C	0.199950	-0.213876	0.106861
	C1267	C	0.208711	-0.213890	0.101026
	C1268	C	0.213195	-0.124126	0.098116
	C1269	C	0.208715	-0.034632	0.101062
	C1270	C	0.199965	-0.034615	0.106903
	C1271	C	0.222506	-0.124138	0.091252
	H1272	H	0.212073	-0.283579	0.098618
	H1273	H	0.196550	-0.283675	0.109149
	H1274	H	0.215232	-0.214615	0.153161
	H1275	H	0.198667	-0.214218	0.153896
	H1276	H	0.173056	-0.373465	0.110260
	H1277	H	0.174269	-0.124131	0.161243
	H1278	H	0.110752	-0.125115	0.172738
	H1279	H	0.236538	-0.374621	0.098503
	H1280	H	0.151812	-0.281866	0.095355
	H1281	H	0.138896	-0.282024	0.070979
	H1282	H	0.134064	-0.214482	0.171639
	H1283	H	0.149630	-0.214559	0.161405
	H1284	H	0.138915	0.034042	0.070959
	H1285	H	0.151781	0.034536	0.095362
	H1286	H	0.149540	-0.533751	0.161136
	H1287	H	0.134007	-0.533384	0.171400
	H1288	H	0.198587	-0.534439	0.154162
	H1289	H	0.215165	-0.534570	0.153422
	H1290	H	0.196601	0.035257	0.109129
	H1291	H	0.212106	0.034760	0.098757
	Al1292	Al	0.173140	0.000593	0.135944
	Al1293	Al	0.173154	0.251351	0.135873
	Al1294	Al	0.118741	0.250227	0.027716
	Al1295	Al	0.118797	0.000619	0.027639
	O1296	O	0.183380	0.041543	0.152550
	O1297	O	0.173135	0.125804	0.123710
	O1298	O	0.173481	0.375858	0.148060
	O1299	O	0.230490	0.040565	0.155219
	O1300	O	0.163701	0.041940	0.151382
	O1301	O	0.120004	0.041993	0.182063
	O1302	O	0.163717	0.210357	0.151267
	O1303	O	0.163896	0.291652	0.116954
	O1304	O	0.127124	0.291073	0.048617
	O1305	O	0.183341	0.209971	0.152672
	O1306	O	0.182643	0.291630	0.120036
	O1307	O	0.226204	0.291383	0.088688
	O1308	O	0.120048	0.210569	0.182276
	O1309	O	0.163860	0.459782	0.117015
	O1310	O	0.127126	0.459439	0.048649
	O1311	O	0.226259	0.459736	0.088699
	O1312	O	0.182540	0.459894	0.119720
	O1313	O	0.230497	0.208976	0.155183
	O1314	O	0.110598	0.376044	0.185941
	O1315	O	0.235927	0.125772	0.085374
	C1316	C	0.211613	0.215374	0.153353
	C1317	C	0.216383	0.125157	0.153289
	C1318	C	0.211581	0.035416	0.153568
	C1319	C	0.202253	0.035776	0.154056
	C1320	C	0.197470	0.125748	0.154172
	C1321	C	0.202279	0.215477	0.153850
	C1322	C	0.187347	0.125781	0.153161
	C1323	C	0.226510	0.124901	0.154578
	C1324	C	0.160036	0.126176	0.153921
	C1325	C	0.150698	0.126135	0.160706
	C1326	C	0.146203	0.215894	0.163439
	C1327	C	0.137428	0.216201	0.169092
	C1328	C	0.132934	0.126443	0.172172
	C1329	C	0.137412	0.036612	0.169265
	C1330	C	0.146190	0.036367	0.163617
	C1331	C	0.123650	0.126291	0.179340
	C1332	C	0.160712	0.375742	0.111445
	C1333	C	0.152764	0.375626	0.096935
	C1334	C	0.148974	0.464484	0.090089
	C1335	C	0.141660	0.464491	0.076447
	C1336	C	0.137952	0.375449	0.069420
	C1337	C	0.141658	0.286527	0.076445
	C1338	C	0.148970	0.286688	0.090067
	C1339	C	0.130194	0.375241	0.054391
	C1340	C	0.186211	0.375944	0.117021
	C1341	C	0.195502	0.376120	0.109737
	C1342	C	0.199973	0.286274	0.106704
	C1343	C	0.208725	0.286456	0.100950
	C1344	C	0.213239	0.376024	0.098135
	C1345	C	0.208762	0.465968	0.100991
	C1346	C	0.199997	0.465845	0.106731
	C1347	C	0.222572	0.375737	0.091294
	H1348	H	0.212112	0.216999	0.098647
	H1349	H	0.196607	0.216298	0.108965
	H1350	H	0.215224	0.285126	0.153050
	H1351	H	0.198700	0.285633	0.154037
	H1352	H	0.173271	0.125759	0.110462
	H1353	H	0.174219	0.376299	0.161333
	H1354	H	0.110760	0.375505	0.172749
	H1355	H	0.236751	0.125923	0.098514
	H1356	H	0.151752	0.217799	0.095406
	H1357	H	0.138816	0.217499	0.071161
	H1358	H	0.134046	0.286033	0.171292
	H1359	H	0.149601	0.285660	0.161100
	H1360	H	0.138836	0.533464	0.071189
	H1361	H	0.151776	0.533873	0.095506
	H1362	H	0.149580	-0.033169	0.161401
	H1363	H	0.134029	-0.033045	0.171574
	H1364	H	0.198617	-0.033987	0.154316
	H1365	H	0.215177	-0.034616	0.153415
	H1366	H	0.196595	0.535222	0.108984
	H1367	H	0.212162	0.535740	0.098778
	Al1368	Al	0.178553	-0.499793	0.232637
	Al1369	Al	0.178579	-0.249655	0.232623
	Al1370	Al	0.110593	-0.249217	0.198283
	Al1371	Al	0.110592	-0.498669	0.198308
	O1372	O	0.189260	-0.458969	0.247661
	O1373	O	0.177969	-0.374751	0.220311
	O1374	O	0.179301	-0.125137	0.245051
	O1375	O	0.236370	-0.460189	0.250231
	O1376	O	0.169563	-0.458964	0.249613
	O1377	O	0.125152	-0.458349	0.278246
	O1378	O	0.169553	-0.290794	0.249616
	O1379	O	0.167979	-0.209290	0.217474
	O1380	O	0.120809	-0.207737	0.214988
	O1381	O	0.189298	-0.290834	0.247629
	O1382	O	0.187671	-0.209086	0.215710
	O1383	O	0.232046	-0.209502	0.187197
	O1384	O	0.125192	-0.290122	0.278358
	O1385	O	0.167982	-0.041090	0.217565
	O1386	O	0.120902	-0.039466	0.214698
	O1387	O	0.232130	-0.041347	0.187272
	O1388	O	0.187689	-0.041077	0.215856
	O1389	O	0.236425	-0.292018	0.250134
	O1390	O	0.115448	-0.124416	0.282869
	O1391	O	0.241832	-0.375040	0.182815
	C1392	C	0.217526	-0.285632	0.248701
	C1393	C	0.222298	-0.375643	0.248567
	C1394	C	0.217483	-0.465650	0.248741
	C1395	C	0.208159	-0.465315	0.249223
	C1396	C	0.203387	-0.375219	0.249424
	C1397	C	0.208198	-0.285297	0.249156
	C1398	C	0.193266	-0.374912	0.248215
	C1399	C	0.232421	-0.376073	0.249696
	C1400	C	0.165864	-0.374846	0.252290
	C1401	C	0.156429	-0.374965	0.258901
	C1402	C	0.151857	-0.285130	0.261646
	C1403	C	0.142957	-0.285052	0.266556
	C1404	C	0.138311	-0.374734	0.268934
	C1405	C	0.142882	-0.464591	0.266205
	C1406	C	0.151793	-0.464713	0.261311
	C1407	C	0.128849	-0.374275	0.275597
	C1408	C	0.163989	-0.125245	0.216907
	C1409	C	0.153858	-0.124923	0.215591
	C1410	C	0.149089	-0.034780	0.215703
	C1411	C	0.139755	-0.034559	0.216209
	C1412	C	0.134951	-0.124328	0.216580
	C1413	C	0.139712	-0.214355	0.216516
	C1414	C	0.149046	-0.214575	0.216020
	C1415	C	0.124844	-0.123832	0.215441
	C1416	C	0.191391	-0.125114	0.213136
	C1417	C	0.200829	-0.124810	0.206526
	C1418	C	0.205413	-0.214665	0.203880
	C1419	C	0.214337	-0.214785	0.198985
	C1420	C	0.218946	-0.125102	0.196518
	C1421	C	0.214378	-0.035343	0.199168
	C1422	C	0.205453	-0.035149	0.204067
	C1423	C	0.228376	-0.125246	0.189883
	H1424	H	0.217761	-0.285115	0.196980
	H1425	H	0.201961	-0.284943	0.205655
	H1426	H	0.221143	-0.215770	0.248329
	H1427	H	0.204611	-0.214983	0.249219
	H1428	H	0.177455	-0.374767	0.207121
	H1429	H	0.180278	-0.125394	0.258237
	H1430	H	0.114700	-0.124351	0.269743
	H1431	H	0.242667	-0.375247	0.195970
	H1432	H	0.152634	-0.284801	0.215907
	H1433	H	0.136100	-0.284302	0.216753
	H1434	H	0.139530	-0.214897	0.268555
	H1435	H	0.155341	-0.214743	0.259944
	H1436	H	0.136169	0.035719	0.216214
	H1437	H	0.152697	0.035033	0.215342
	H1438	H	0.155203	-0.534847	0.259295
	H1439	H	0.139383	-0.534667	0.267922
	H1440	H	0.204527	-0.535390	0.249329
	H1441	H	0.221055	-0.535711	0.248476
	H1442	H	0.202014	0.035033	0.205968
	H1443	H	0.217801	0.034396	0.197376
	Al1444	Al	0.178623	-0.000102	0.232811
	Al1445	Al	0.178611	0.250080	0.232812
	Al1446	Al	0.110576	0.250645	0.198185
	Al1447	Al	0.110616	0.001157	0.198147
	O1448	O	0.189268	0.041257	0.247840
	O1449	O	0.177958	0.124915	0.220433
	O1450	O	0.179296	0.375293	0.245071
	O1451	O	0.236370	0.039654	0.250255
	O1452	O	0.169570	0.040811	0.249797
	O1453	O	0.125157	0.041596	0.278384
	O1454	O	0.169628	0.208736	0.249842
	O1455	O	0.167925	0.290783	0.217867
	O1456	O	0.120771	0.291961	0.214971
	O1457	O	0.189295	0.209522	0.247693
	O1458	O	0.187617	0.291220	0.215659
	O1459	O	0.232093	0.290986	0.187273
	O1460	O	0.125191	0.209454	0.278410
	O1461	O	0.167954	0.458883	0.217447
	O1462	O	0.120830	0.460494	0.214838
	O1463	O	0.232096	0.459083	0.187292
	O1464	O	0.187651	0.459503	0.215741
	O1465	O	0.236416	0.208165	0.249989
	O1466	O	0.115480	0.375555	0.282956
	O1467	O	0.241809	0.124332	0.182596
	C1468	C	0.217532	0.214437	0.248690
	C1469	C	0.222289	0.124169	0.248557
	C1470	C	0.217480	0.034301	0.248816
	C1471	C	0.208159	0.034647	0.249335
	C1472	C	0.203393	0.124864	0.249495
	C1473	C	0.208197	0.214795	0.249215
	C1474	C	0.193284	0.125329	0.248383
	C1475	C	0.232407	0.123991	0.249576
	C1476	C	0.165879	0.124934	0.252390
	C1477	C	0.156405	0.125038	0.258794
	C1478	C	0.151865	0.215017	0.261595
	C1479	C	0.142928	0.215171	0.266490
	C1480	C	0.138270	0.125409	0.268871
	C1481	C	0.142817	0.035471	0.266099
	C1482	C	0.151755	0.035268	0.261186
	C1483	C	0.128850	0.125576	0.275627
	C1484	C	0.163947	0.374995	0.216982
	C1485	C	0.153823	0.375418	0.215766
	C1486	C	0.149051	0.465446	0.215755
	C1487	C	0.139719	0.465515	0.216141
	C1488	C	0.134908	0.375805	0.216492
	C1489	C	0.139683	0.285854	0.216389
	C1490	C	0.149017	0.285683	0.215995
	C1491	C	0.124790	0.376042	0.215477
	C1492	C	0.191328	0.375369	0.213062
	C1493	C	0.200807	0.375368	0.206523
	C1494	C	0.205391	0.285522	0.203941
	C1495	C	0.214318	0.285278	0.199060
	C1496	C	0.218926	0.375153	0.196524
	C1497	C	0.214338	0.465102	0.199034
	C1498	C	0.205405	0.465251	0.203910
	C1499	C	0.228415	0.375037	0.189966
	H1500	H	0.217744	0.215002	0.197294
	H1501	H	0.201926	0.215300	0.205803
	H1502	H	0.221151	0.284360	0.248322
	H1503	H	0.204597	0.285065	0.249399
	H1504	H	0.177073	0.124476	0.207332
	H1505	H	0.180344	0.375584	0.258230
	H1506	H	0.114685	0.375754	0.269740
	H1507	H	0.242821	0.123735	0.195862
	H1508	H	0.152625	0.215412	0.215864
	H1509	H	0.136075	0.215890	0.216688
	H1510	H	0.139562	0.285375	0.268581
	H1511	H	0.155361	0.284987	0.259933
	H1512	H	0.136137	0.535765	0.216255
	H1513	H	0.152656	0.535384	0.215438
	H1514	H	0.155156	-0.034990	0.259212
	H1515	H	0.139357	-0.034623	0.267880
	H1516	H	0.204546	-0.035436	0.249587
	H1517	H	0.221050	-0.035808	0.248583
	H1518	H	0.202002	0.535562	0.205783
	H1519	H	0.217808	0.535174	0.197194
	Al1520	Al	0.184547	-0.500637	0.327722
	Al1521	Al	0.184591	-0.250970	0.327734
	Al1522	Al	0.116072	-0.249647	0.295255
	Al1523	Al	0.116126	-0.499163	0.295267
	O1524	O	0.195213	-0.459666	0.342733
	O1525	O	0.183906	-0.375759	0.315383
	O1526	O	0.185239	-0.125774	0.340049
	O1527	O	0.242283	-0.460510	0.344984
	O1528	O	0.175511	-0.459962	0.344748
	O1529	O	0.131100	-0.459317	0.373275
	O1530	O	0.175575	-0.291981	0.344813
	O1531	O	0.173837	-0.210051	0.312921
	O1532	O	0.126694	-0.208287	0.310521
	O1533	O	0.195247	-0.291367	0.342792
	O1534	O	0.193554	-0.209928	0.310515
	O1535	O	0.237954	-0.210035	0.282155
	O1536	O	0.131084	-0.291189	0.373315
	O1537	O	0.173908	-0.041689	0.312546
	O1538	O	0.126771	-0.040040	0.310298
	O1539	O	0.238038	-0.042167	0.282246
	O1540	O	0.193570	-0.041837	0.310718
	O1541	O	0.242366	-0.292443	0.344969
	O1542	O	0.121322	-0.125086	0.377887
	O1543	O	0.247726	-0.375768	0.277585
	C1544	C	0.223441	-0.285933	0.343441
	C1545	C	0.228223	-0.375832	0.343292
	C1546	C	0.223427	-0.465740	0.343669
	C1547	C	0.214103	-0.465508	0.344222
	C1548	C	0.209322	-0.375506	0.344351
	C1549	C	0.214118	-0.285631	0.343994
	C1550	C	0.199220	-0.375626	0.343249
	C1551	C	0.238324	-0.376168	0.344421
	C1552	C	0.171830	-0.375896	0.347429
	C1553	C	0.162367	-0.375400	0.354029
	C1554	C	0.157825	-0.285427	0.356807
	C1555	C	0.148888	-0.285139	0.361702
	C1556	C	0.144243	-0.374976	0.364085
	C1557	C	0.148789	-0.464898	0.361309
	C1558	C	0.157714	-0.465121	0.356395
	C1559	C	0.134787	-0.375088	0.370660
	C1560	C	0.169881	-0.125747	0.312215
	C1561	C	0.159760	-0.125235	0.310973
	C1562	C	0.154976	-0.035077	0.311037
	C1563	C	0.145646	-0.034672	0.311522
	C1564	C	0.140835	-0.124579	0.311947
	C1565	C	0.145621	-0.214676	0.311846
	C1566	C	0.154944	-0.215030	0.311316
	C1567	C	0.130718	-0.124407	0.310891
	C1568	C	0.197266	-0.125721	0.307977
	C1569	C	0.206679	-0.125453	0.301301
	C1570	C	0.211289	-0.215456	0.298720
	C1571	C	0.220244	-0.215543	0.293878
	C1572	C	0.224866	-0.125699	0.291391
	C1573	C	0.220277	-0.035620	0.294049
	C1574	C	0.211330	-0.035465	0.298912
	C1575	C	0.234285	-0.125901	0.284839
	H1576	H	0.223688	-0.285466	0.291974
	H1577	H	0.207870	-0.285820	0.300471
	H1578	H	0.227041	-0.215931	0.343231
	H1579	H	0.210533	-0.215573	0.344208
	H1580	H	0.183050	-0.375791	0.302247
	H1581	H	0.186180	-0.126105	0.353205
	H1582	H	0.120318	-0.125111	0.364786
	H1583	H	0.248706	-0.376020	0.290750
	H1584	H	0.158517	-0.285408	0.311211
	H1585	H	0.141991	-0.284713	0.312109
	H1586	H	0.145493	-0.214808	0.363700
	H1587	H	0.161300	-0.215117	0.355131
	H1588	H	0.142053	0.035666	0.311507
	H1589	H	0.158626	0.034555	0.310685
	H1590	H	0.161116	-0.535440	0.354391
	H1591	H	0.145322	-0.535195	0.363068
	H1592	H	0.210488	-0.535483	0.344607
	H1593	H	0.227023	-0.535926	0.343601
	H1594	H	0.207902	0.034629	0.300849
	H1595	H	0.223707	0.034848	0.292331
	Al1596	Al	0.184512	-0.000773	0.327728
	Al1597	Al	0.184547	0.248989	0.327727
	Al1598	Al	0.116109	0.250720	0.295334
	Al1599	Al	0.116086	0.000571	0.295366
	O1600	O	0.195162	0.040402	0.342856
	O1601	O	0.183901	0.124044	0.315371
	O1602	O	0.185173	0.374311	0.340124
	O1603	O	0.242287	0.039426	0.344928
	O1604	O	0.175513	0.039761	0.344832
	O1605	O	0.130993	0.041000	0.373200
	O1606	O	0.175475	0.208011	0.344742
	O1607	O	0.173864	0.290270	0.312746
	O1608	O	0.126760	0.291721	0.310410
	O1609	O	0.195208	0.208592	0.342833
	O1610	O	0.193532	0.290111	0.310527
	O1611	O	0.237975	0.290110	0.282123
	O1612	O	0.131057	0.209001	0.373340
	O1613	O	0.173869	0.458650	0.312651
	O1614	O	0.126804	0.459948	0.310275
	O1615	O	0.238046	0.458227	0.282484
	O1616	O	0.193537	0.458174	0.310693
	O1617	O	0.242334	0.207524	0.344891
	O1618	O	0.121294	0.374555	0.377942
	O1619	O	0.247725	0.124489	0.277511
	C1620	C	0.223422	0.213966	0.343577
	C1621	C	0.228202	0.123941	0.343356
	C1622	C	0.223406	0.033905	0.343563
	C1623	C	0.214077	0.034088	0.344158
	C1624	C	0.209300	0.124154	0.344450
	C1625	C	0.214088	0.214174	0.344168
	C1626	C	0.199191	0.124350	0.343411
	C1627	C	0.238318	0.123607	0.344342
	C1628	C	0.171782	0.123873	0.347416
	C1629	C	0.162345	0.124094	0.354068
	C1630	C	0.157797	0.214123	0.356804
	C1631	C	0.148861	0.214129	0.361697
	C1632	C	0.144191	0.124403	0.364022
	C1633	C	0.148765	0.034495	0.361395
	C1634	C	0.157697	0.034455	0.356519
	C1635	C	0.134732	0.124832	0.370610
	C1636	C	0.169874	0.374541	0.312124
	C1637	C	0.159765	0.374370	0.310972
	C1638	C	0.155000	0.464539	0.311069
	C1639	C	0.145670	0.465062	0.311577
	C1640	C	0.140869	0.375243	0.311954
	C1641	C	0.145617	0.285066	0.311915
	C1642	C	0.154949	0.284524	0.311424
	C1643	C	0.130766	0.375803	0.310907
	C1644	C	0.197221	0.374177	0.307899
	C1645	C	0.206694	0.374129	0.301318
	C1646	C	0.211277	0.284380	0.298690
	C1647	C	0.220203	0.284365	0.293889
	C1648	C	0.224831	0.374319	0.291417
	C1649	C	0.220255	0.464116	0.294073
	C1650	C	0.211326	0.464000	0.298891
	C1651	C	0.234307	0.374144	0.284908
	H1652	H	0.223617	0.214054	0.292052
	H1653	H	0.207808	0.214049	0.300496
	H1654	H	0.227023	0.284200	0.343423
	H1655	H	0.210515	0.284410	0.344506
	H1656	H	0.183027	0.124460	0.302134
	H1657	H	0.185940	0.374282	0.353347
	H1658	H	0.120247	0.374189	0.364718
	H1659	H	0.248694	0.123884	0.290634
	H1660	H	0.158514	0.214281	0.311328
	H1661	H	0.141986	0.215111	0.312178
	H1662	H	0.145480	0.284371	0.363760
	H1663	H	0.161274	0.284097	0.355125
	H1664	H	0.142080	0.535187	0.311591
	H1665	H	0.158608	0.534527	0.310664
	H1666	H	0.161104	-0.035848	0.354569
	H1667	H	0.145309	-0.035747	0.363237
	H1668	H	0.210469	-0.035905	0.344527
	H1669	H	0.226986	-0.036255	0.343407
	H1670	H	0.207909	0.534358	0.300844
	H1671	H	0.223759	0.534059	0.292346
	Al1672	Al	0.190415	-0.501108	0.422449
	Al1673	Al	0.190454	-0.250710	0.422440
	Al1674	Al	0.122030	-0.249999	0.390149
	Al1675	Al	0.122038	-0.500189	0.390246
	O1676	O	0.201044	-0.459616	0.437629
	O1677	O	0.189759	-0.375933	0.410109
	O1678	O	0.191059	-0.125791	0.434896
	O1679	O	0.248188	-0.460465	0.439850
	O1680	O	0.181357	-0.459942	0.439451
	O1681	O	0.136986	-0.459536	0.468111
	O1682	O	0.181407	-0.291639	0.439412
	O1683	O	0.179808	-0.210008	0.407402
	O1684	O	0.132677	-0.209061	0.405278
	O1685	O	0.201118	-0.291335	0.437547
	O1686	O	0.199417	-0.209622	0.405473
	O1687	O	0.243859	-0.210488	0.376932
	O1688	O	0.136984	-0.291272	0.468129
	O1689	O	0.179810	-0.041726	0.407442
	O1690	O	0.132698	-0.040892	0.405180
	O1691	O	0.243860	-0.042212	0.377008
	O1692	O	0.199463	-0.041736	0.405593
	O1693	O	0.248200	-0.292176	0.439669
	O1694	O	0.127336	-0.125376	0.472735
	O1695	O	0.253638	-0.376479	0.372437
	C1696	C	0.229307	-0.286175	0.438567
	C1697	C	0.234084	-0.376272	0.438120
	C1698	C	0.229267	-0.466167	0.438334
	C1699	C	0.219946	-0.466184	0.438902
	C1700	C	0.215176	-0.376088	0.439151
	C1701	C	0.219987	-0.286034	0.439115
	C1702	C	0.205070	-0.375706	0.438081
	C1703	C	0.244197	-0.376383	0.439241
	C1704	C	0.177666	-0.375712	0.442036
	C1705	C	0.168223	-0.375477	0.448689
	C1706	C	0.163608	-0.285651	0.451181
	C1707	C	0.154683	-0.285613	0.456091
	C1708	C	0.150089	-0.375421	0.458726
	C1709	C	0.154689	-0.465347	0.456225
	C1710	C	0.163612	-0.465297	0.451315
	C1711	C	0.140674	-0.375371	0.465414
	C1712	C	0.175830	-0.125890	0.406906
	C1713	C	0.165708	-0.125658	0.405975
	C1714	C	0.160930	-0.035514	0.406050
	C1715	C	0.151590	-0.035387	0.406529
	C1716	C	0.146797	-0.125224	0.406894
	C1717	C	0.151571	-0.215381	0.406784
	C1718	C	0.160903	-0.215505	0.406290
	C1719	C	0.136668	-0.125038	0.405793
	C1720	C	0.203175	-0.125731	0.402900
	C1721	C	0.212615	-0.125720	0.396378
	C1722	C	0.217186	-0.215780	0.393729
	C1723	C	0.226123	-0.216014	0.388834
	C1724	C	0.230756	-0.126404	0.386363
	C1725	C	0.226173	-0.036464	0.388946
	C1726	C	0.217241	-0.036012	0.393853
	C1727	C	0.240156	-0.126457	0.379638
	H1728	H	0.229559	-0.286286	0.386958
	H1729	H	0.213746	-0.286287	0.395553
	H1730	H	0.232933	-0.216034	0.438474
	H1731	H	0.216402	-0.215800	0.439404
	H1732	H	0.188733	-0.375888	0.396927
	H1733	H	0.191993	-0.126141	0.448056
	H1734	H	0.126454	-0.125438	0.459551
	H1735	H	0.254487	-0.376801	0.385675
	H1736	H	0.164487	-0.285873	0.406163
	H1737	H	0.147953	-0.285600	0.407094
	H1738	H	0.151246	-0.215547	0.457996
	H1739	H	0.167061	-0.215413	0.449360
	H1740	H	0.147995	0.034958	0.406687
	H1741	H	0.164530	0.034469	0.405748
	H1742	H	0.167066	-0.535690	0.449518
	H1743	H	0.151286	-0.535452	0.458241
	H1744	H	0.216326	-0.536203	0.439052
	H1745	H	0.232844	-0.536189	0.438044
	H1746	H	0.213835	0.034215	0.395853
	H1747	H	0.229614	0.033854	0.387170
	Al1748	Al	0.190445	-0.000642	0.422596
	Al1749	Al	0.190512	0.249153	0.422628
	Al1750	Al	0.122041	0.249817	0.390290
	Al1751	Al	0.122023	-0.000132	0.390308
	O1752	O	0.201142	0.040223	0.437654
	O1753	O	0.189819	0.124210	0.410187
	O1754	O	0.191075	0.374328	0.434916
	O1755	O	0.248233	0.039029	0.439611
	O1756	O	0.181391	0.040133	0.439604
	O1757	O	0.136958	0.040367	0.467970
	O1758	O	0.181438	0.208110	0.439654
	O1759	O	0.179811	0.289471	0.407590
	O1760	O	0.132699	0.290888	0.405338
	O1761	O	0.201174	0.208573	0.437598
	O1762	O	0.199512	0.289999	0.405654
	O1763	O	0.243945	0.289412	0.376983
	O1764	O	0.136956	0.208263	0.467968
	O1765	O	0.179853	0.457617	0.407252
	O1766	O	0.132732	0.459169	0.405218
	O1767	O	0.243976	0.457430	0.377120
	O1768	O	0.199469	0.457889	0.405525
	O1769	O	0.248246	0.207306	0.439588
	O1770	O	0.127356	0.374567	0.472817
	O1771	O	0.253640	0.123850	0.372375
	C1772	C	0.229392	0.213837	0.438254
	C1773	C	0.234146	0.123560	0.438028
	C1774	C	0.229350	0.033646	0.438258
	C1775	C	0.220013	0.033757	0.438862
	C1776	C	0.215262	0.124000	0.439086
	C1777	C	0.220059	0.213946	0.438833
	C1778	C	0.205140	0.124300	0.438096
	C1779	C	0.244246	0.123118	0.439024
	C1780	C	0.177706	0.124324	0.442261
	C1781	C	0.168230	0.124223	0.448783
	C1782	C	0.163639	0.213963	0.451365
	C1783	C	0.154695	0.214086	0.456181
	C1784	C	0.150101	0.124263	0.458639
	C1785	C	0.154694	0.034403	0.456101
	C1786	C	0.163638	0.034303	0.451267
	C1787	C	0.140624	0.124366	0.465260
	C1788	C	0.175824	0.373687	0.406875
	C1789	C	0.165719	0.374187	0.405844
	C1790	C	0.160930	0.464368	0.405951
	C1791	C	0.151603	0.464635	0.406533
	C1792	C	0.146817	0.374747	0.406991
	C1793	C	0.151597	0.284636	0.406966
	C1794	C	0.160920	0.284437	0.406332
	C1795	C	0.136717	0.374989	0.405834
	C1796	C	0.203188	0.374133	0.402853
	C1797	C	0.212645	0.374040	0.396209
	C1798	C	0.217232	0.284331	0.393630
	C1799	C	0.226158	0.283825	0.388785
	C1800	C	0.230756	0.373659	0.386201
	C1801	C	0.226186	0.463442	0.388844
	C1802	C	0.217251	0.463808	0.393677
	C1803	C	0.240248	0.373524	0.379721
	H1804	H	0.229542	0.213590	0.386930
	H1805	H	0.213752	0.214301	0.395448
	H1806	H	0.232972	0.284063	0.438106
	H1807	H	0.216487	0.284156	0.439120
	H1808	H	0.188798	0.124517	0.397046
	H1809	H	0.191970	0.375076	0.448014
	H1810	H	0.126432	0.374336	0.459617
	H1811	H	0.254652	0.124518	0.385574
	H1812	H	0.164510	0.214003	0.406250
	H1813	H	0.147983	0.214529	0.407423
	H1814	H	0.151277	0.284296	0.458107
	H1815	H	0.167096	0.284432	0.449685
	H1816	H	0.148010	0.534849	0.406642
	H1817	H	0.164538	0.534237	0.405541
	H1818	H	0.167060	-0.035968	0.449487
	H1819	H	0.151280	-0.035761	0.457933
	H1820	H	0.216431	-0.036228	0.439244
	H1821	H	0.232946	-0.036378	0.438071
	H1822	H	0.213865	0.534220	0.395504
	H1823	H	0.229658	0.533474	0.387049
	Al1824	Al	0.196442	-0.501012	0.517442
	Al1825	Al	0.196423	-0.251273	0.517410
	Al1826	Al	0.127988	-0.250258	0.485153
	Al1827	Al	0.127963	-0.500458	0.485158
	O1828	O	0.207071	-0.460405	0.532511
	O1829	O	0.195769	-0.376187	0.505081
	O1830	O	0.197040	-0.126141	0.529802
	O1831	O	0.254234	-0.460039	0.534954
	O1832	O	0.187373	-0.460163	0.534411
	O1833	O	0.142907	-0.459317	0.562771
	O1834	O	0.187317	-0.292310	0.534275
	O1835	O	0.185759	-0.210091	0.502300
	O1836	O	0.138620	-0.209352	0.500214
	O1837	O	0.207102	-0.292230	0.532528
	O1838	O	0.205424	-0.210069	0.500431
	O1839	O	0.249811	-0.210354	0.471842
	O1840	O	0.142921	-0.291366	0.562756
	O1841	O	0.185774	-0.041850	0.502394
	O1842	O	0.138638	-0.041209	0.500216
	O1843	O	0.249836	-0.042503	0.471816
	O1844	O	0.205440	-0.042141	0.500488
	O1845	O	0.254178	-0.291873	0.535064
	O1846	O	0.133247	-0.125487	0.567368
	O1847	O	0.259489	-0.376379	0.467237
	C1848	C	0.235314	-0.286378	0.533713
	C1849	C	0.240107	-0.376399	0.533480
	C1850	C	0.235317	-0.466259	0.533693
	C1851	C	0.225986	-0.466309	0.534140
	C1852	C	0.221196	-0.376386	0.534288
	C1853	C	0.225978	-0.286468	0.534174
	C1854	C	0.211075	-0.376416	0.533121
	C1855	C	0.250225	-0.376078	0.534418
	C1856	C	0.183640	-0.376345	0.536962
	C1857	C	0.174231	-0.376127	0.543692
	C1858	C	0.169671	-0.286110	0.546401
	C1859	C	0.160743	-0.285835	0.551275
	C1860	C	0.156069	-0.375428	0.553583
	C1861	C	0.160660	-0.465266	0.551035
	C1862	C	0.169586	-0.465760	0.546174
	C1863	C	0.146637	-0.375368	0.560173
	C1864	C	0.181780	-0.125947	0.501800
	C1865	C	0.171663	-0.125764	0.500590
	C1866	C	0.166887	-0.035739	0.500859
	C1867	C	0.157556	-0.035490	0.501403
	C1868	C	0.152746	-0.125351	0.501670
	C1869	C	0.157519	-0.215424	0.501450
	C1870	C	0.166857	-0.215531	0.500889
	C1871	C	0.142624	-0.125362	0.500713
	C1872	C	0.209119	-0.126036	0.497789
	C1873	C	0.218557	-0.126105	0.491154
	C1874	C	0.223154	-0.216048	0.488621
	C1875	C	0.232092	-0.216115	0.483761
	C1876	C	0.236688	-0.126301	0.481108
	C1877	C	0.232090	-0.036330	0.483664
	C1878	C	0.223151	-0.036234	0.488519
	C1879	C	0.246157	-0.126391	0.474555
	H1880	H	0.235509	-0.286170	0.481878
	H1881	H	0.219740	-0.286192	0.490505
	H1882	H	0.238933	-0.216577	0.533597
	H1883	H	0.222363	-0.216336	0.534470
	H1884	H	0.194909	-0.376416	0.491836
	H1885	H	0.197683	-0.126133	0.542937
	H1886	H	0.132390	-0.125131	0.554171
	H1887	H	0.260221	-0.376407	0.480525
	H1888	H	0.170429	-0.285849	0.500653
	H1889	H	0.153886	-0.285059	0.501700
	H1890	H	0.157357	-0.215371	0.553199
	H1891	H	0.173153	-0.216458	0.544624
	H1892	H	0.154001	0.034821	0.501632
	H1893	H	0.170505	0.034170	0.500550
	H1894	H	0.172972	-0.536100	0.544171
	H1895	H	0.157172	-0.535299	0.552796
	H1896	H	0.222394	-0.536455	0.534339
	H1897	H	0.238906	-0.536254	0.533560
	H1898	H	0.219699	0.033852	0.490273
	H1899	H	0.235536	0.033885	0.481741
	Al1900	Al	0.196420	-0.001296	0.517501
	Al1901	Al	0.196424	0.248871	0.517434
	Al1902	Al	0.127931	0.249439	0.485121
	Al1903	Al	0.127939	-0.000182	0.485022
	O1904	O	0.207052	0.039846	0.532597
	O1905	O	0.195707	0.123674	0.505106
	O1906	O	0.197062	0.373871	0.529764
	O1907	O	0.254166	0.040018	0.535097
	O1908	O	0.187335	0.039640	0.534417
	O1909	O	0.142955	0.040849	0.562936
	O1910	O	0.187369	0.207952	0.534441
	O1911	O	0.185741	0.289447	0.502402
	O1912	O	0.138634	0.289931	0.500107
	O1913	O	0.207059	0.208247	0.532527
	O1914	O	0.205392	0.289915	0.500341
	O1915	O	0.249809	0.289212	0.471773
	O1916	O	0.142944	0.208756	0.562893
	O1917	O	0.185782	0.457719	0.502309
	O1918	O	0.138633	0.458290	0.500154
	O1919	O	0.249841	0.457353	0.471757
	O1920	O	0.205458	0.457923	0.500442
	O1921	O	0.254165	0.208397	0.535274
	O1922	O	0.133209	0.374246	0.567465
	O1923	O	0.259519	0.123679	0.467182
	C1924	C	0.235292	0.214083	0.533792
	C1925	C	0.240072	0.124166	0.533608
	C1926	C	0.235279	0.034214	0.533751
	C1927	C	0.225952	0.034315	0.534239
	C1928	C	0.221174	0.124175	0.534489
	C1929	C	0.225967	0.213984	0.534261
	C1930	C	0.211045	0.124103	0.533205
	C1931	C	0.250185	0.124177	0.534589
	C1932	C	0.183650	0.123958	0.537047
	C1933	C	0.174213	0.124198	0.543615
	C1934	C	0.169662	0.214243	0.546298
	C1935	C	0.160711	0.214479	0.551186
	C1936	C	0.156080	0.124716	0.553643
	C1937	C	0.160639	0.034735	0.550994
	C1938	C	0.169580	0.034549	0.546104
	C1939	C	0.146639	0.125017	0.560206
	C1940	C	0.181773	0.373605	0.501699
	C1941	C	0.171646	0.374120	0.500662
	C1942	C	0.166879	0.464254	0.500891
	C1943	C	0.157534	0.464333	0.501368
	C1944	C	0.152735	0.374377	0.501544
	C1945	C	0.157504	0.284242	0.501275
	C1946	C	0.166835	0.284153	0.500788
	C1947	C	0.142627	0.374194	0.500618
	C1948	C	0.209138	0.373763	0.497797
	C1949	C	0.218574	0.373655	0.491132
	C1950	C	0.223193	0.283869	0.488730
	C1951	C	0.232110	0.283586	0.483808
	C1952	C	0.236702	0.373311	0.481132
	C1953	C	0.232109	0.463134	0.483644
	C1954	C	0.223192	0.463443	0.488548
	C1955	C	0.246132	0.373401	0.474429
	H1956	H	0.235524	0.213214	0.481906
	H1957	H	0.219724	0.213660	0.490646
	H1958	H	0.238903	0.283917	0.533585
	H1959	H	0.222359	0.283895	0.534517
	H1960	H	0.194616	0.123377	0.491856
	H1961	H	0.197775	0.373876	0.542948
	H1962	H	0.132252	0.373793	0.554321
	H1963	H	0.260320	0.123461	0.480384
	H1964	H	0.170427	0.214000	0.500662
	H1965	H	0.153923	0.213981	0.501600
	H1966	H	0.157311	0.284825	0.553224
	H1967	H	0.173110	0.284292	0.544690
	H1968	H	0.153929	0.534501	0.501714
	H1969	H	0.170499	0.534142	0.500783
	H1970	H	0.173014	-0.035764	0.544304
	H1971	H	0.157228	-0.035424	0.552916
	H1972	H	0.222336	-0.035583	0.534482
	H1973	H	0.238888	-0.035687	0.533564
	H1974	H	0.219768	0.533610	0.490321
	H1975	H	0.235555	0.533391	0.481651
	Al1976	Al	0.201825	-0.500499	0.613991
	Al1977	Al	0.201831	-0.251669	0.613982
	Al1978	Al	0.133833	-0.250628	0.579654
	Al1979	Al	0.133904	-0.500332	0.579802
	O1980	O	0.211119	-0.459699	0.632693
	O1981	O	0.201530	-0.375694	0.601766
	O1982	O	0.201794	-0.125733	0.626234
	O1983	O	0.247796	-0.460027	0.701348
	O1984	O	0.192328	-0.459893	0.629733
	O1985	O	0.148774	-0.459813	0.661377
	O1986	O	0.192445	-0.291599	0.630130
	O1987	O	0.191591	-0.210182	0.597297
	O1988	O	0.144474	-0.209299	0.594815
	O1989	O	0.211128	-0.291954	0.632808
	O1990	O	0.211271	-0.210099	0.598611
	O1991	O	0.254911	-0.210622	0.567649
	O1992	O	0.148830	-0.291454	0.661613
	O1993	O	0.191642	-0.041763	0.597180
	O1994	O	0.144510	-0.041104	0.594845
	O1995	O	0.254957	-0.042531	0.567741
	O1996	O	0.211269	-0.042150	0.598589
	O1997	O	0.247843	-0.291851	0.701323
	O1998	O	0.139053	-0.125652	0.664749
	O1999	O	0.264371	-0.376072	0.564100
	C2000	C	0.233299	-0.287088	0.673447
	C2001	C	0.237038	-0.375818	0.680464
	C2002	C	0.233326	-0.464588	0.673394
	C2003	C	0.226034	-0.464609	0.659766
	C2004	C	0.222268	-0.375842	0.652787
	C2005	C	0.225994	-0.286855	0.659804
	C2006	C	0.214273	-0.376053	0.638360
	C2007	C	0.244772	-0.375792	0.695507
	C2008	C	0.188760	-0.375772	0.632883
	C2009	C	0.179488	-0.375520	0.640120
	C2010	C	0.175041	-0.285846	0.643283
	C2011	C	0.166284	-0.285897	0.649084
	C2012	C	0.161779	-0.375649	0.651946
	C2013	C	0.166239	-0.465252	0.648889
	C2014	C	0.174986	-0.465278	0.643090
	C2015	C	0.152438	-0.375677	0.658751
	C2016	C	0.187631	-0.125836	0.596775
	C2017	C	0.177522	-0.125732	0.595801
	C2018	C	0.172764	-0.035827	0.596100
	C2019	C	0.163429	-0.035626	0.596575
	C2020	C	0.158628	-0.125390	0.596678
	C2021	C	0.163399	-0.215274	0.596505
	C2022	C	0.172733	-0.215526	0.596037
	C2023	C	0.148494	-0.125385	0.595378
	C2024	C	0.214951	-0.126191	0.596056
	C2025	C	0.224296	-0.126473	0.589284
	C2026	C	0.228783	-0.216202	0.586415
	C2027	C	0.237549	-0.216076	0.580732
	C2028	C	0.242060	-0.126313	0.577844
	C2029	C	0.237568	-0.036708	0.580788
	C2030	C	0.228793	-0.036819	0.586456
	C2031	C	0.251325	-0.126377	0.570581
	H2032	H	0.240920	-0.285808	0.578540
	H2033	H	0.225370	-0.285663	0.588693
	H2034	H	0.236103	-0.218108	0.678877
	H2035	H	0.223141	-0.217866	0.654647
	H2036	H	0.200923	-0.375936	0.588560
	H2037	H	0.201650	-0.125572	0.639401
	H2038	H	0.138271	-0.125709	0.651580
	H2039	H	0.264135	-0.375798	0.577332
	H2040	H	0.176315	-0.285580	0.595810
	H2041	H	0.159804	-0.285056	0.596663
	H2042	H	0.162860	-0.216743	0.651331
	H2043	H	0.178454	-0.216390	0.641070
	H2044	H	0.159848	0.034324	0.596766
	H2045	H	0.176370	0.034217	0.595898
	H2046	H	0.178338	-0.535211	0.640684
	H2047	H	0.162814	-0.535051	0.650906
	H2048	H	0.223180	-0.533505	0.654494
	H2049	H	0.236100	-0.533295	0.678796
	H2050	H	0.225406	0.032905	0.588694
	H2051	H	0.240981	0.032856	0.578584
	Al2052	Al	0.201837	-0.000471	0.613896
	Al2053	Al	0.201797	0.248539	0.613808
	Al2054	Al	0.133867	0.249673	0.579770
	Al2055	Al	0.133886	-0.000511	0.579756
	O2056	O	0.211122	0.040308	0.632590
	O2057	O	0.201505	0.124132	0.601630
	O2058	O	0.201830	0.374229	0.626156
	O2059	O	0.247713	0.040328	0.701410
	O2060	O	0.192300	0.040169	0.629597
	O2061	O	0.148793	0.039729	0.661430
	O2062	O	0.192391	0.208599	0.629868
	O2063	O	0.191610	0.290259	0.597068
	O2064	O	0.144486	0.290776	0.595032
	O2065	O	0.211067	0.208401	0.632624
	O2066	O	0.211234	0.289888	0.598434
	O2067	O	0.254939	0.289627	0.567744
	O2068	O	0.148853	0.208252	0.661724
	O2069	O	0.191626	0.458565	0.597262
	O2070	O	0.144525	0.459086	0.594921
	O2071	O	0.254968	0.457953	0.567804
	O2072	O	0.211303	0.458306	0.598667
	O2073	O	0.247760	0.208518	0.701397
	O2074	O	0.139065	0.374293	0.664745
	O2075	O	0.264334	0.123786	0.564071
	C2076	C	0.233240	0.213697	0.673377
	C2077	C	0.236947	0.124576	0.680468
	C2078	C	0.233240	0.035465	0.673345
	C2079	C	0.225980	0.035304	0.659616
	C2080	C	0.222205	0.124374	0.652714
	C2081	C	0.225983	0.213303	0.659682
	C2082	C	0.214261	0.124310	0.638179
	C2083	C	0.244693	0.124394	0.695554
	C2084	C	0.188747	0.124538	0.632702
	C2085	C	0.179484	0.124444	0.640091
	C2086	C	0.175034	0.214260	0.643280
	C2087	C	0.166312	0.214342	0.649223
	C2088	C	0.161825	0.124373	0.652095
	C2089	C	0.166300	0.034540	0.649085
	C2090	C	0.175036	0.034530	0.643147
	C2091	C	0.152498	0.123876	0.658977
	C2092	C	0.187612	0.374402	0.596621
	C2093	C	0.177506	0.374377	0.595698
	C2094	C	0.172744	0.464298	0.595986
	C2095	C	0.163435	0.464186	0.596569
	C2096	C	0.158622	0.374349	0.596685
	C2097	C	0.163396	0.284312	0.596611
	C2098	C	0.172722	0.284373	0.596034
	C2099	C	0.148498	0.374740	0.595575
	C2100	C	0.214933	0.374124	0.595974
	C2101	C	0.224303	0.373694	0.589334
	C2102	C	0.228764	0.283993	0.586347
	C2103	C	0.237542	0.284249	0.580666
	C2104	C	0.242046	0.373895	0.577816
	C2105	C	0.237586	0.463583	0.580967
	C2106	C	0.228820	0.463380	0.586707
	C2107	C	0.251330	0.373789	0.570606
	H2108	H	0.240933	0.214598	0.578303
	H2109	H	0.225370	0.214178	0.588404
	H2110	H	0.236052	0.282733	0.678646
	H2111	H	0.223187	0.282118	0.654285
	H2112	H	0.200701	0.124124	0.588474
	H2113	H	0.201676	0.373529	0.639395
	H2114	H	0.138400	0.373862	0.651560
	H2115	H	0.263990	0.123436	0.577235
	H2116	H	0.176316	0.214251	0.595819
	H2117	H	0.159789	0.214483	0.596950
	H2118	H	0.162977	0.283879	0.651704
	H2119	H	0.178436	0.284037	0.641123
	H2120	H	0.159819	0.534359	0.596883
	H2121	H	0.176341	0.534235	0.595742
	H2122	H	0.178422	-0.035370	0.640830
	H2123	H	0.162924	-0.035008	0.651439
	H2124	H	0.223188	-0.033665	0.654191
	H2125	H	0.236083	-0.033364	0.678669
	H2126	H	0.225420	0.532787	0.589012
	H2127	H	0.240948	0.533235	0.578864
	Al2128	Al	0.193708	-0.500254	0.785056
	Al2129	Al	0.193736	-0.250188	0.785037
	Al2130	Al	0.139362	-0.250422	0.676913
	Al2131	Al	0.139351	-0.501260	0.676806
	O2132	O	0.201920	-0.459143	0.806195
	O2133	O	0.194408	-0.375325	0.773233
	O2134	O	0.193010	-0.125345	0.796948
	O2135	O	0.235606	-0.458901	0.881702
	O2136	O	0.183638	-0.459795	0.798456
	O2137	O	0.141214	-0.459611	0.833817
	O2138	O	0.183642	-0.291294	0.798449
	O2139	O	0.185337	-0.209172	0.764301
	O2140	O	0.148667	-0.209869	0.695629
	O2141	O	0.201927	-0.290972	0.806265
	O2142	O	0.203771	-0.209140	0.771528
	O2143	O	0.246035	-0.209976	0.735463
	O2144	O	0.141230	-0.291190	0.833896
	O2145	O	0.185347	-0.041067	0.764257
	O2146	O	0.148656	-0.041746	0.695633
	O2147	O	0.246112	-0.041549	0.735588
	O2148	O	0.203768	-0.040710	0.771602
	O2149	O	0.235660	-0.291032	0.881610
	O2150	O	0.131907	-0.124783	0.835354
	O2151	O	0.255489	-0.375369	0.734042
	C2152	C	0.222096	-0.285783	0.851487
	C2153	C	0.225579	-0.374977	0.859114
	C2154	C	0.222163	-0.464144	0.851395
	C2155	C	0.215476	-0.464248	0.836341
	C2156	C	0.212002	-0.375173	0.828694
	C2157	C	0.215414	-0.285964	0.836412
	C2158	C	0.204793	-0.375205	0.812505
	C2159	C	0.232777	-0.374855	0.875427
	C2160	C	0.180069	-0.375557	0.801308
	C2161	C	0.170965	-0.375402	0.809000
	C2162	C	0.166695	-0.285916	0.812696
	C2163	C	0.158184	-0.285866	0.819648
	C2164	C	0.153841	-0.375473	0.823013
	C2165	C	0.158139	-0.464875	0.819435
	C2166	C	0.166638	-0.464830	0.812417
	C2167	C	0.144775	-0.375349	0.830864
	C2168	C	0.182294	-0.125065	0.758503
	C2169	C	0.174534	-0.125310	0.743450
	C2170	C	0.170816	-0.036609	0.736354
	C2171	C	0.163546	-0.036820	0.722644
	C2172	C	0.159777	-0.125799	0.715735
	C2173	C	0.163556	-0.214774	0.722681
	C2174	C	0.170832	-0.214395	0.736395
	C2175	C	0.151825	-0.125758	0.701169
	C2176	C	0.207314	-0.125026	0.768605
	C2177	C	0.216376	-0.124964	0.760683
	C2178	C	0.220659	-0.214364	0.757033
	C2179	C	0.229142	-0.214173	0.749925
	C2180	C	0.233461	-0.124884	0.746415
	C2181	C	0.229156	-0.035290	0.749945
	C2182	C	0.220664	-0.035615	0.757072
	C2183	C	0.242525	-0.125469	0.738462
	H2184	H	0.232429	-0.283322	0.746970
	H2185	H	0.217360	-0.283337	0.759798
	H2186	H	0.224625	-0.216605	0.857389
	H2187	H	0.212814	-0.216713	0.830615
	H2188	H	0.195059	-0.375547	0.760218
	H2189	H	0.192177	-0.125634	0.809859
	H2190	H	0.132705	-0.124392	0.822380
	H2191	H	0.254764	-0.375300	0.746996
	H2192	H	0.173673	-0.283202	0.741776
	H2193	H	0.160760	-0.283704	0.717342
	H2194	H	0.154912	-0.216851	0.822575
	H2195	H	0.170031	-0.217169	0.810040
	H2196	H	0.160721	0.031935	0.717251
	H2197	H	0.173606	0.032573	0.741702
	H2198	H	0.169929	-0.533782	0.809535
	H2199	H	0.154817	-0.533875	0.822178
	H2200	H	0.212916	-0.533425	0.830507
	H2201	H	0.224753	-0.533076	0.857259
	H2202	H	0.217355	0.033370	0.759874
	H2203	H	0.232425	0.033778	0.747031
	Al2204	Al	0.193762	-0.000288	0.785107
	Al2205	Al	0.193735	0.249678	0.785073
	Al2206	Al	0.139358	0.249783	0.676958
	Al2207	Al	0.139355	-0.001108	0.676898
	O2208	O	0.201939	0.041087	0.806297
	O2209	O	0.194421	0.124679	0.773205
	O2210	O	0.193079	0.374881	0.796955
	O2211	O	0.235669	0.041144	0.881616
	O2212	O	0.183676	0.040903	0.798486
	O2213	O	0.141215	0.041012	0.833752
	O2214	O	0.183671	0.209096	0.798435
	O2215	O	0.185353	0.290650	0.764243
	O2216	O	0.148660	0.290354	0.695632
	O2217	O	0.201966	0.208987	0.806156
	O2218	O	0.203750	0.290514	0.771504
	O2219	O	0.246054	0.290405	0.735499
	O2220	O	0.141251	0.209415	0.833870
	O2221	O	0.185342	0.458793	0.764230
	O2222	O	0.148656	0.458342	0.695587
	O2223	O	0.246084	0.458890	0.735605
	O2224	O	0.203816	0.458974	0.771566
	O2225	O	0.235647	0.209287	0.881715
	O2226	O	0.131809	0.374870	0.835453
	O2227	O	0.255435	0.124479	0.733991
	C2228	C	0.222138	0.214327	0.851431
	C2229	C	0.225595	0.125539	0.859107
	C2230	C	0.222195	0.036585	0.851333
	C2231	C	0.215504	0.036224	0.836328
	C2232	C	0.212010	0.125128	0.828747
	C2233	C	0.215446	0.214142	0.836417
	C2234	C	0.204795	0.125006	0.812459
	C2235	C	0.232795	0.125316	0.875373
	C2236	C	0.180111	0.125077	0.801439
	C2237	C	0.171020	0.125052	0.809145
	C2238	C	0.166680	0.214390	0.812590
	C2239	C	0.158177	0.214504	0.819559
	C2240	C	0.153877	0.125244	0.823136
	C2241	C	0.158198	0.035844	0.819613
	C2242	C	0.166708	0.035680	0.812619
	C2243	C	0.144801	0.125144	0.830906
	C2244	C	0.182277	0.374489	0.758468
	C2245	C	0.174540	0.374786	0.743415
	C2246	C	0.170815	0.463855	0.736379
	C2247	C	0.163531	0.463522	0.722644
	C2248	C	0.159765	0.374445	0.715698
	C2249	C	0.163524	0.285413	0.722670
	C2250	C	0.170803	0.285675	0.736380
	C2251	C	0.151811	0.374419	0.701196
	C2252	C	0.207320	0.374705	0.768547
	C2253	C	0.216374	0.374549	0.760569
	C2254	C	0.220707	0.285261	0.757088
	C2255	C	0.229193	0.284821	0.749938
	C2256	C	0.233449	0.374353	0.746288
	C2257	C	0.229157	0.463606	0.749971
	C2258	C	0.220692	0.463941	0.757105
	C2259	C	0.242510	0.374671	0.738461
	H2260	H	0.232506	0.215835	0.747154
	H2261	H	0.217392	0.216672	0.760065
	H2262	H	0.224711	0.283412	0.857244
	H2263	H	0.212863	0.283151	0.830539
	H2264	H	0.195144	0.124158	0.760275
	H2265	H	0.192235	0.374342	0.809936
	H2266	H	0.132493	0.375097	0.822400
	H2267	H	0.254404	0.124050	0.746813
	H2268	H	0.173562	0.216571	0.741774
	H2269	H	0.160691	0.216276	0.717415
	H2270	H	0.154879	0.283387	0.822382
	H2271	H	0.169970	0.283288	0.809811
	H2272	H	0.160707	0.532675	0.717317
	H2273	H	0.173591	0.533082	0.741802
	H2274	H	0.170016	-0.033470	0.809792
	H2275	H	0.154886	-0.032934	0.822415
	H2276	H	0.212981	-0.032818	0.830396
	H2277	H	0.224809	-0.032572	0.857151
	H2278	H	0.217435	0.533015	0.759988
	H2279	H	0.232463	0.532682	0.747242
	Al2280	Al	0.181279	-0.499664	0.964961
	Al2281	Al	0.181283	-0.249703	0.964949
	Al2282	Al	0.131156	-0.249945	0.847221
	Al2283	Al	0.131143	-0.499796	0.847254
	O2284	O	0.189651	-0.458566	0.985844
	O2285	O	0.181926	-0.374945	0.953129
	O2286	O	0.180578	-0.124992	0.976793
	O2287	O	0.226293	-0.458270	1.054525
	O2288	O	0.171195	-0.458886	0.978323
	O2289	O	0.128921	-0.458656	1.014369
	O2290	O	0.171239	-0.290435	0.978451
	O2291	O	0.173045	-0.208804	0.943842
	O2292	O	0.139339	-0.208665	0.868398
	O2293	O	0.189673	-0.290614	0.985764
	O2294	O	0.191324	-0.208842	0.951546
	O2295	O	0.233739	-0.208717	0.916199
	O2296	O	0.128960	-0.290153	1.014452
	O2297	O	0.173039	-0.040951	0.943785
	O2298	O	0.139424	-0.040977	0.868306
	O2299	O	0.233763	-0.040273	0.916322
	O2300	O	0.191318	-0.040427	0.951630
	O2301	O	0.226318	-0.290144	1.054518
	O2302	O	0.119508	-0.124553	1.015797
	O2303	O	0.243089	-0.374854	0.914672
	C2304	C	0.211516	-0.285054	1.027267
	C2305	C	0.215260	-0.374181	1.034268
	C2306	C	0.211467	-0.463325	1.027390
	C2307	C	0.204203	-0.463434	1.013650
	C2308	C	0.200509	-0.374343	1.006547
	C2309	C	0.204240	-0.285097	1.013547
	C2310	C	0.192725	-0.374500	0.991539
	C2311	C	0.223179	-0.374154	1.048892
	C2312	C	0.167659	-0.374724	0.981288
	C2313	C	0.158615	-0.374658	0.989233
	C2314	C	0.154333	-0.285460	0.992861
	C2315	C	0.145850	-0.285328	0.999967
	C2316	C	0.141535	-0.374561	1.003514
	C2317	C	0.145799	-0.463837	0.999786
	C2318	C	0.154277	-0.463879	0.992688
	C2319	C	0.132483	-0.374385	1.011454
	C2320	C	0.170194	-0.125214	0.937529
	C2321	C	0.163010	-0.125006	0.921236
	C2322	C	0.159593	-0.036159	0.913573
	C2323	C	0.152911	-0.036332	0.898536
	C2324	C	0.149460	-0.125123	0.890822
	C2325	C	0.152896	-0.214045	0.898462
	C2326	C	0.159595	-0.213851	0.913482
	C2327	C	0.142245	-0.125028	0.874557
	C2328	C	0.194901	-0.124424	0.948728
	C2329	C	0.204006	-0.124550	0.941029
	C2330	C	0.208306	-0.213896	0.937475
	C2331	C	0.216790	-0.213942	0.930425
	C2332	C	0.221122	-0.124563	0.926915
	C2333	C	0.216836	-0.035115	0.930498
	C2334	C	0.208346	-0.035134	0.937535
	C2335	C	0.230198	-0.124501	0.919166
	H2336	H	0.220068	-0.282653	0.927574
	H2337	H	0.204995	-0.282537	0.940269
	H2338	H	0.214327	-0.215840	1.032576
	H2339	H	0.201436	-0.216219	1.008179
	H2340	H	0.182541	-0.374758	0.940161
	H2341	H	0.179960	-0.125560	0.989848
	H2342	H	0.120256	-0.124704	1.002890
	H2343	H	0.242370	-0.374942	0.927683
	H2344	H	0.162154	-0.282690	0.919358
	H2345	H	0.150363	-0.283258	0.892582
	H2346	H	0.142552	-0.216605	1.002887
	H2347	H	0.157630	-0.216671	0.989919
	H2348	H	0.150338	0.032717	0.892671
	H2349	H	0.162152	0.033145	0.919410
	H2350	H	0.157524	-0.532476	0.989652
	H2351	H	0.142480	-0.532598	1.002518
	H2352	H	0.201377	-0.532670	1.008349
	H2353	H	0.214251	-0.532147	1.032817
	H2354	H	0.205029	0.033892	0.940376
	H2355	H	0.220167	0.033926	0.927698
	Al2356	Al	0.181236	0.000165	0.965008
	Al2357	Al	0.181234	0.250336	0.964976
	Al2358	Al	0.131165	0.249740	0.847304
	Al2359	Al	0.131159	0.000204	0.847205
	O2360	O	0.189624	0.041480	0.985763
	O2361	O	0.181890	0.125037	0.953101
	O2362	O	0.180591	0.375276	0.976767
	O2363	O	0.226307	0.041607	1.054347
	O2364	O	0.171234	0.041199	0.978619
	O2365	O	0.128859	0.041523	1.014246
	O2366	O	0.171219	0.209539	0.978603
	O2367	O	0.173087	0.291296	0.943753
	O2368	O	0.139402	0.290924	0.868355
	O2369	O	0.189605	0.209752	0.985770
	O2370	O	0.191326	0.290498	0.951579
	O2371	O	0.233777	0.290660	0.916252
	O2372	O	0.128836	0.209694	1.014353
	O2373	O	0.173084	0.459164	0.943774
	O2374	O	0.139332	0.458945	0.868421
	O2375	O	0.233789	0.459244	0.916388
	O2376	O	0.191342	0.459007	0.951620
	O2377	O	0.226320	0.209751	1.054368
	O2378	O	0.119510	0.375347	1.015874
	O2379	O	0.243103	0.125259	0.914744
	C2380	C	0.211531	0.214886	1.027091
	C2381	C	0.215228	0.125680	1.034191
	C2382	C	0.211420	0.036409	1.027329
	C2383	C	0.204130	0.036224	1.013699
	C2384	C	0.200434	0.125502	1.006595
	C2385	C	0.204235	0.214831	1.013480
	C2386	C	0.192669	0.125390	0.991539
	C2387	C	0.223182	0.125667	1.048774
	C2388	C	0.167670	0.125392	0.981556
	C2389	C	0.158602	0.125540	0.989435
	C2390	C	0.154316	0.214972	0.993072
	C2391	C	0.145815	0.215136	1.000121
	C2392	C	0.141472	0.125727	1.003548
	C2393	C	0.145763	0.036297	0.999924
	C2394	C	0.154259	0.036215	0.992905
	C2395	C	0.132411	0.125531	1.011404
	C2396	C	0.170216	0.375155	0.937509
	C2397	C	0.163023	0.375190	0.921259
	C2398	C	0.159553	0.464060	0.913596
	C2399	C	0.152865	0.464120	0.898579
	C2400	C	0.149441	0.375182	0.890855
	C2401	C	0.152915	0.286136	0.898469
	C2402	C	0.159614	0.286166	0.913452
	C2403	C	0.142231	0.374910	0.874618
	C2404	C	0.194890	0.374820	0.948695
	C2405	C	0.203964	0.374941	0.940906
	C2406	C	0.208276	0.285617	0.937379
	C2407	C	0.216799	0.285515	0.930443
	C2408	C	0.221134	0.374852	0.926989
	C2409	C	0.216827	0.464118	0.930511
	C2410	C	0.208308	0.464325	0.937475
	C2411	C	0.230221	0.375010	0.919258
	H2412	H	0.220091	0.216622	0.927683
	H2413	H	0.204958	0.216915	0.940189
	H2414	H	0.214400	0.283872	1.032322
	H2415	H	0.201454	0.284073	1.007994
	H2416	H	0.182575	0.125569	0.940035
	H2417	H	0.179932	0.375376	0.989797
	H2418	H	0.120359	0.375241	1.002800
	H2419	H	0.242203	0.125447	0.927602
	H2420	H	0.162192	0.217129	0.919263
	H2421	H	0.150374	0.217227	0.892484
	H2422	H	0.142557	0.284427	1.003054
	H2423	H	0.157646	0.283953	0.990348
	H2424	H	0.150297	0.533172	0.892765
	H2425	H	0.162127	0.533063	0.919490
	H2426	H	0.157529	-0.032853	0.990016
	H2427	H	0.142420	-0.032554	1.002705
	H2428	H	0.201285	-0.033000	1.008407
	H2429	H	0.214209	-0.032787	1.032694
	H2430	H	0.205016	0.533359	0.940281
	H2431	H	0.220164	0.532791	0.927770
	Al2432	Al	0.303613	-0.500191	0.107800
	Al2433	Al	0.303644	-0.250296	0.108002
	Al2434	Al	0.235651	-0.249543	0.073189
	Al2435	Al	0.235650	-0.498865	0.073134
	O2436	O	0.314234	-0.459384	0.123000
	O2437	O	0.302989	-0.375119	0.095494
	O2438	O	0.304256	-0.125211	0.120289
	O2439	O	0.361346	-0.461216	0.125293
	O2440	O	0.294565	-0.459477	0.124782
	O2441	O	0.250179	-0.459194	0.153384
	O2442	O	0.294606	-0.291312	0.124904
	O2443	O	0.292968	-0.209510	0.092821
	O2444	O	0.245871	-0.208390	0.089713
	O2445	O	0.314282	-0.291226	0.122915
	O2446	O	0.312662	-0.209412	0.090947
	O2447	O	0.357051	-0.210374	0.062202
	O2448	O	0.250203	-0.291203	0.153438
	O2449	O	0.293015	-0.041342	0.092707
	O2450	O	0.245913	-0.040006	0.089642
	O2451	O	0.357110	-0.042241	0.062402
	O2452	O	0.312755	-0.041226	0.091058
	O2453	O	0.361389	-0.292850	0.125056
	O2454	O	0.240506	-0.125425	0.157948
	O2455	O	0.366760	-0.375463	0.057653
	C2456	C	0.342509	-0.286244	0.123551
	C2457	C	0.347257	-0.376504	0.123377
	C2458	C	0.342457	-0.466254	0.123828
	C2459	C	0.333129	-0.465918	0.124393
	C2460	C	0.328368	-0.375690	0.124487
	C2461	C	0.333182	-0.285892	0.124132
	C2462	C	0.318255	-0.375460	0.123447
	C2463	C	0.357382	-0.376876	0.124620
	C2464	C	0.290894	-0.375324	0.127498
	C2465	C	0.281460	-0.375206	0.134074
	C2466	C	0.276882	-0.285252	0.136679
	C2467	C	0.267949	-0.285173	0.141576
	C2468	C	0.263343	-0.375162	0.144155
	C2469	C	0.267935	-0.464976	0.141577
	C2470	C	0.276858	-0.465169	0.136660
	C2471	C	0.253887	-0.375305	0.150796
	C2472	C	0.289005	-0.125279	0.092094
	C2473	C	0.278903	-0.125317	0.090821
	C2474	C	0.274138	-0.034996	0.090794
	C2475	C	0.264803	-0.034663	0.091179
	C2476	C	0.259996	-0.124498	0.091459
	C2477	C	0.264753	-0.214780	0.091449
	C2478	C	0.274101	-0.215142	0.091049
	C2479	C	0.249888	-0.124368	0.090336
	C2480	C	0.316406	-0.125349	0.088327
	C2481	C	0.325823	-0.125842	0.081587
	C2482	C	0.330395	-0.215844	0.078907
	C2483	C	0.339316	-0.215881	0.073962
	C2484	C	0.343940	-0.126024	0.071565
	C2485	C	0.339360	-0.036072	0.074149
	C2486	C	0.330432	-0.035988	0.079102
	C2487	C	0.353379	-0.126263	0.064906
	H2488	H	0.342728	-0.286011	0.072050
	H2489	H	0.326940	-0.286014	0.080736
	H2490	H	0.346111	-0.216267	0.123174
	H2491	H	0.329583	-0.215586	0.124228
	H2492	H	0.302086	-0.374719	0.082392
	H2493	H	0.305108	-0.125150	0.133453
	H2494	H	0.239596	-0.125846	0.144748
	H2495	H	0.367836	-0.375478	0.070776
	H2496	H	0.277685	-0.284986	0.090945
	H2497	H	0.261157	-0.284600	0.091736
	H2498	H	0.264523	-0.215112	0.143399
	H2499	H	0.280304	-0.215223	0.134738
	H2500	H	0.261229	0.035558	0.091213
	H2501	H	0.277728	0.035055	0.090490
	H2502	H	0.280267	-0.535370	0.134708
	H2503	H	0.264470	-0.535184	0.143401
	H2504	H	0.329546	-0.535842	0.124709
	H2505	H	0.346034	-0.536241	0.123641
	H2506	H	0.327034	0.034419	0.081128
	H2507	H	0.342821	0.034055	0.072331
	Al2508	Al	0.303649	-0.000479	0.107914
	Al2509	Al	0.303594	0.249987	0.107848
	Al2510	Al	0.235606	0.250328	0.073151
	Al2511	Al	0.235632	0.001354	0.073165
	O2512	O	0.314296	0.040861	0.123015
	O2513	O	0.302950	0.124669	0.095524
	O2514	O	0.304302	0.374888	0.120181
	O2515	O	0.361358	0.039295	0.125130
	O2516	O	0.294556	0.040736	0.124757
	O2517	O	0.250172	0.040931	0.153347
	O2518	O	0.294642	0.208786	0.125024
	O2519	O	0.292942	0.290285	0.092854
	O2520	O	0.245867	0.291654	0.089658
	O2521	O	0.314259	0.209148	0.122801
	O2522	O	0.312597	0.290657	0.090717
	O2523	O	0.357053	0.289949	0.062364
	O2524	O	0.250174	0.209042	0.153342
	O2525	O	0.293009	0.458516	0.092589
	O2526	O	0.245912	0.460121	0.089739
	O2527	O	0.357101	0.458000	0.062398
	O2528	O	0.312662	0.458566	0.090889
	O2529	O	0.361403	0.207488	0.125251
	O2530	O	0.240504	0.374750	0.158044
	O2531	O	0.366747	0.124375	0.057792
	C2532	C	0.342507	0.214055	0.123652
	C2533	C	0.347263	0.123802	0.123499
	C2534	C	0.342440	0.034128	0.123832
	C2535	C	0.333107	0.034646	0.124360
	C2536	C	0.328369	0.124999	0.124502
	C2537	C	0.333190	0.214749	0.124174
	C2538	C	0.318270	0.125119	0.123447
	C2539	C	0.357382	0.123496	0.124587
	C2540	C	0.290891	0.124792	0.127511
	C2541	C	0.281448	0.124858	0.134072
	C2542	C	0.276861	0.214738	0.136695
	C2543	C	0.267917	0.214879	0.141537
	C2544	C	0.263287	0.125055	0.143997
	C2545	C	0.267875	0.035210	0.141349
	C2546	C	0.276818	0.035010	0.136512
	C2547	C	0.253867	0.124944	0.150706
	C2548	C	0.288987	0.374541	0.092170
	C2549	C	0.278897	0.374967	0.090862
	C2550	C	0.274123	0.465073	0.090936
	C2551	C	0.264782	0.465261	0.091274
	C2552	C	0.259973	0.375469	0.091533
	C2553	C	0.264745	0.285518	0.091359
	C2554	C	0.274079	0.285220	0.091021
	C2555	C	0.249888	0.375779	0.090313
	C2556	C	0.316340	0.374509	0.088154
	C2557	C	0.325779	0.374902	0.081511
	C2558	C	0.330371	0.284904	0.078898
	C2559	C	0.339319	0.284768	0.074052
	C2560	C	0.343938	0.374476	0.071579
	C2561	C	0.339347	0.464562	0.074137
	C2562	C	0.330407	0.464599	0.079000
	C2563	C	0.353368	0.374105	0.065032
	H2564	H	0.342759	0.214657	0.072132
	H2565	H	0.326936	0.214731	0.080677
	H2566	H	0.346132	0.284047	0.123308
	H2567	H	0.329621	0.285024	0.124308
	H2568	H	0.302039	0.124717	0.082349
	H2569	H	0.305257	0.374479	0.133423
	H2570	H	0.239637	0.374385	0.144812
	H2571	H	0.367690	0.124568	0.071018
	H2572	H	0.277637	0.215142	0.090901
	H2573	H	0.261146	0.215650	0.091538
	H2574	H	0.264496	0.285200	0.143474
	H2575	H	0.280321	0.284803	0.134942
	H2576	H	0.261181	0.535487	0.091337
	H2577	H	0.277756	0.534686	0.090788
	H2578	H	0.280229	-0.035214	0.134602
	H2579	H	0.264427	-0.035078	0.143156
	H2580	H	0.329473	-0.035075	0.124651
	H2581	H	0.346015	-0.036022	0.123645
	H2582	H	0.326956	0.534862	0.080809
	H2583	H	0.342779	0.534768	0.072221
	Al2584	Al	0.309495	-0.501403	0.202680
	Al2585	Al	0.309534	-0.251293	0.202764
	Al2586	Al	0.241162	-0.250622	0.170411
	Al2587	Al	0.241176	-0.500020	0.170406
	O2588	O	0.320183	-0.461089	0.217732
	O2589	O	0.308810	-0.375965	0.190376
	O2590	O	0.310190	-0.126264	0.215127
	O2591	O	0.367310	-0.460360	0.219804
	O2592	O	0.300455	-0.460309	0.219625
	O2593	O	0.255956	-0.459391	0.248142
	O2594	O	0.300455	-0.291994	0.219689
	O2595	O	0.298848	-0.210431	0.187690
	O2596	O	0.251735	-0.209303	0.185666
	O2597	O	0.320152	-0.292793	0.217959
	O2598	O	0.318568	-0.210651	0.185860
	O2599	O	0.362974	-0.210844	0.157091
	O2600	O	0.256063	-0.291240	0.248235
	O2601	O	0.298903	-0.042123	0.187610
	O2602	O	0.251718	-0.041227	0.185421
	O2603	O	0.362996	-0.042623	0.157209
	O2604	O	0.318554	-0.042472	0.185688
	O2605	O	0.367297	-0.292037	0.219954
	O2606	O	0.246318	-0.125814	0.252849
	O2607	O	0.372702	-0.376660	0.152579
	C2608	C	0.348396	-0.286438	0.218376
	C2609	C	0.353190	-0.376414	0.218421
	C2610	C	0.348399	-0.466419	0.218746
	C2611	C	0.339069	-0.466294	0.219342
	C2612	C	0.334279	-0.376329	0.219557
	C2613	C	0.339063	-0.286423	0.218981
	C2614	C	0.324170	-0.376762	0.218451
	C2615	C	0.363300	-0.376295	0.219365
	C2616	C	0.296775	-0.376064	0.222385
	C2617	C	0.287326	-0.376242	0.228960
	C2618	C	0.282736	-0.286193	0.231459
	C2619	C	0.273811	-0.286137	0.236308
	C2620	C	0.269181	-0.376067	0.238954
	C2621	C	0.273760	-0.466096	0.236270
	C2622	C	0.282692	-0.466178	0.231423
	C2623	C	0.259719	-0.375727	0.245561
	C2624	C	0.294870	-0.126087	0.187071
	C2625	C	0.284778	-0.125892	0.185898
	C2626	C	0.280005	-0.035838	0.186094
	C2627	C	0.270677	-0.035636	0.186696
	C2628	C	0.265858	-0.125366	0.187014
	C2629	C	0.270626	-0.215511	0.186890
	C2630	C	0.279960	-0.215680	0.186258
	C2631	C	0.255741	-0.125216	0.186066
	C2632	C	0.322271	-0.126554	0.183087
	C2633	C	0.331727	-0.126744	0.176504
	C2634	C	0.336304	-0.216619	0.173803
	C2635	C	0.345220	-0.216542	0.168907
	C2636	C	0.349828	-0.126626	0.166447
	C2637	C	0.345259	-0.036724	0.169154
	C2638	C	0.336327	-0.036877	0.173997
	C2639	C	0.359293	-0.126735	0.159857
	H2640	H	0.348649	-0.286526	0.166832
	H2641	H	0.332838	-0.287016	0.175434
	H2642	H	0.351994	-0.216537	0.217975
	H2643	H	0.335459	-0.216456	0.219067
	H2644	H	0.307688	-0.375422	0.177248
	H2645	H	0.311007	-0.126144	0.228307
	H2646	H	0.245264	-0.125621	0.239753
	H2647	H	0.373873	-0.376602	0.165635
	H2648	H	0.283547	-0.286014	0.186045
	H2649	H	0.266995	-0.285628	0.187233
	H2650	H	0.270370	-0.215809	0.238026
	H2651	H	0.286207	-0.216033	0.229540
	H2652	H	0.267097	0.034623	0.186886
	H2653	H	0.283586	0.034216	0.185743
	H2654	H	0.286115	-0.536416	0.229503
	H2655	H	0.270279	-0.536351	0.237969
	H2656	H	0.335476	-0.536430	0.219684
	H2657	H	0.352008	-0.536466	0.218584
	H2658	H	0.332856	0.033052	0.175819
	H2659	H	0.348686	0.033597	0.167338
	Al2660	Al	0.309555	-0.000917	0.202786
	Al2661	Al	0.309499	0.248448	0.202685
	Al2662	Al	0.241140	0.250055	0.170394
	Al2663	Al	0.241118	-0.000395	0.170189
	O2664	O	0.320202	0.039762	0.217898
	O2665	O	0.308851	0.123343	0.190391
	O2666	O	0.310202	0.373609	0.215009
	O2667	O	0.367377	0.039900	0.220061
	O2668	O	0.300543	0.039516	0.219873
	O2669	O	0.256039	0.040317	0.248113
	O2670	O	0.300482	0.207639	0.219694
	O2671	O	0.298859	0.290036	0.187768
	O2672	O	0.251746	0.290773	0.185727
	O2673	O	0.320233	0.207871	0.217577
	O2674	O	0.318547	0.289892	0.185669
	O2675	O	0.363018	0.289356	0.157252
	O2676	O	0.256041	0.208311	0.248061
	O2677	O	0.298897	0.458275	0.187569
	O2678	O	0.251779	0.459046	0.185582
	O2679	O	0.363035	0.457268	0.157321
	O2680	O	0.318554	0.457814	0.185704
	O2681	O	0.367331	0.208153	0.220077
	O2682	O	0.246320	0.374346	0.252860
	O2683	O	0.372720	0.123467	0.152517
	C2684	C	0.348443	0.213484	0.218405
	C2685	C	0.353238	0.123579	0.218377
	C2686	C	0.348434	0.033584	0.218827
	C2687	C	0.339103	0.033631	0.219384
	C2688	C	0.334321	0.123617	0.219415
	C2689	C	0.339103	0.213579	0.218925
	C2690	C	0.324204	0.123657	0.218268
	C2691	C	0.363357	0.123841	0.219484
	C2692	C	0.296825	0.123456	0.222455
	C2693	C	0.287389	0.123724	0.229143
	C2694	C	0.282791	0.213773	0.231559
	C2695	C	0.273843	0.214006	0.236387
	C2696	C	0.269249	0.124266	0.239000
	C2697	C	0.273833	0.034418	0.236421
	C2698	C	0.282769	0.034083	0.231621
	C2699	C	0.259769	0.124329	0.245543
	C2700	C	0.294879	0.374241	0.187090
	C2701	C	0.284762	0.374526	0.185939
	C2702	C	0.279987	0.464495	0.186083
	C2703	C	0.270658	0.464557	0.186737
	C2704	C	0.265876	0.374656	0.187118
	C2705	C	0.270654	0.284795	0.186894
	C2706	C	0.279972	0.284686	0.186282
	C2707	C	0.255752	0.374824	0.186131
	C2708	C	0.322259	0.373891	0.183139
	C2709	C	0.331729	0.373587	0.176548
	C2710	C	0.336278	0.283725	0.173706
	C2711	C	0.345212	0.283772	0.168857
	C2712	C	0.349859	0.373540	0.166549
	C2713	C	0.345269	0.463376	0.169149
	C2714	C	0.336344	0.463436	0.174040
	C2715	C	0.359310	0.373346	0.159907
	H2716	H	0.348608	0.213699	0.166828
	H2717	H	0.332808	0.213777	0.175375
	H2718	H	0.352027	0.283728	0.218112
	H2719	H	0.335518	0.283770	0.219091
	H2720	H	0.308049	0.122989	0.177241
	H2721	H	0.311217	0.373929	0.228116
	H2722	H	0.245269	0.374739	0.239666
	H2723	H	0.373735	0.122807	0.165766
	H2724	H	0.283565	0.214344	0.186136
	H2725	H	0.267055	0.214805	0.187249
	H2726	H	0.270396	0.284323	0.238130
	H2727	H	0.286214	0.283935	0.229675
	H2728	H	0.267088	0.534478	0.187007
	H2729	H	0.283592	0.534389	0.185828
	H2730	H	0.286194	-0.036230	0.229747
	H2731	H	0.270384	-0.035742	0.238244
	H2732	H	0.335515	-0.036472	0.219824
	H2733	H	0.352030	-0.036715	0.218832
	H2734	H	0.332912	0.533531	0.175932
	H2735	H	0.348715	0.533375	0.167337
	Al2736	Al	0.315481	-0.501351	0.297594
	Al2737	Al	0.315439	-0.251333	0.297501
	Al2738	Al	0.247037	-0.250786	0.265241
	Al2739	Al	0.247007	-0.500850	0.265315
	O2740	O	0.326123	-0.460485	0.312581
	O2741	O	0.314787	-0.376845	0.285183
	O2742	O	0.316135	-0.126634	0.309878
	O2743	O	0.373224	-0.460438	0.314818
	O2744	O	0.306390	-0.460273	0.314513
	O2745	O	0.261947	-0.460291	0.342978
	O2746	O	0.306382	-0.292324	0.314458
	O2747	O	0.304804	-0.210561	0.282480
	O2748	O	0.257673	-0.209190	0.280366
	O2749	O	0.326127	-0.292327	0.312386
	O2750	O	0.324463	-0.210707	0.280492
	O2751	O	0.368913	-0.210339	0.252171
	O2752	O	0.261992	-0.292094	0.343114
	O2753	O	0.304807	-0.042346	0.282400
	O2754	O	0.257758	-0.040876	0.280033
	O2755	O	0.368877	-0.042281	0.252028
	O2756	O	0.324483	-0.042722	0.280545
	O2757	O	0.373207	-0.292291	0.314694
	O2758	O	0.252257	-0.126418	0.347692
	O2759	O	0.378623	-0.376440	0.247302
	C2760	C	0.354306	-0.286583	0.313311
	C2761	C	0.359097	-0.376445	0.313127
	C2762	C	0.354310	-0.466460	0.313357
	C2763	C	0.344993	-0.466543	0.313926
	C2764	C	0.340206	-0.376636	0.314147
	C2765	C	0.344993	-0.286688	0.313879
	C2766	C	0.330109	-0.376377	0.313070
	C2767	C	0.369214	-0.376339	0.314212
	C2768	C	0.302687	-0.376323	0.317168
	C2769	C	0.293221	-0.376400	0.323673
	C2770	C	0.288617	-0.286570	0.326144
	C2771	C	0.279702	-0.286460	0.331040
	C2772	C	0.275125	-0.376279	0.333753
	C2773	C	0.279710	-0.466139	0.331141
	C2774	C	0.288623	-0.466220	0.326245
	C2775	C	0.265674	-0.376251	0.340443
	C2776	C	0.300814	-0.126452	0.281858
	C2777	C	0.290708	-0.126136	0.280768
	C2778	C	0.285928	-0.036112	0.281042
	C2779	C	0.276602	-0.036045	0.281597
	C2780	C	0.271795	-0.125898	0.281786
	C2781	C	0.276583	-0.216069	0.281678
	C2782	C	0.285904	-0.215963	0.281093
	C2783	C	0.261712	-0.125363	0.280773
	C2784	C	0.328190	-0.126717	0.277892
	C2785	C	0.337636	-0.126498	0.271348
	C2786	C	0.342236	-0.216289	0.268760
	C2787	C	0.351147	-0.216403	0.263875
	C2788	C	0.355742	-0.126548	0.261291
	C2789	C	0.351144	-0.036774	0.263937
	C2790	C	0.342242	-0.036673	0.268867
	C2791	C	0.365186	-0.126344	0.254740
	H2792	H	0.354569	-0.286645	0.261936
	H2793	H	0.338757	-0.286312	0.270579
	H2794	H	0.357891	-0.216628	0.313022
	H2795	H	0.341403	-0.216728	0.314030
	H2796	H	0.313802	-0.376854	0.272008
	H2797	H	0.317134	-0.127055	0.323059
	H2798	H	0.251234	-0.126315	0.334572
	H2799	H	0.379663	-0.376506	0.260632
	H2800	H	0.289520	-0.286186	0.280918
	H2801	H	0.272961	-0.285998	0.282013
	H2802	H	0.276245	-0.216453	0.332806
	H2803	H	0.292018	-0.216444	0.324149
	H2804	H	0.273022	0.034256	0.281892
	H2805	H	0.289527	0.033785	0.280855
	H2806	H	0.292071	-0.536235	0.324292
	H2807	H	0.276248	-0.536212	0.332886
	H2808	H	0.341367	-0.536594	0.314155
	H2809	H	0.357925	-0.536370	0.313119
	H2810	H	0.338781	0.033536	0.270758
	H2811	H	0.354574	0.033392	0.262061
	Al2812	Al	0.315484	-0.001262	0.297509
	Al2813	Al	0.315451	0.248677	0.297585
	Al2814	Al	0.247042	0.249222	0.265126
	Al2815	Al	0.247053	-0.000989	0.265192
	O2816	O	0.326157	0.039954	0.312425
	O2817	O	0.314798	0.123966	0.285292
	O2818	O	0.316120	0.373769	0.310014
	O2819	O	0.373269	0.039104	0.314819
	O2820	O	0.306403	0.039759	0.314534
	O2821	O	0.261968	0.039902	0.343083
	O2822	O	0.306413	0.207863	0.314583
	O2823	O	0.304823	0.289556	0.282555
	O2824	O	0.257688	0.290071	0.280281
	O2825	O	0.326129	0.208213	0.312614
	O2826	O	0.324464	0.289336	0.280508
	O2827	O	0.368953	0.289884	0.252123
	O2828	O	0.261953	0.207654	0.342864
	O2829	O	0.304870	0.457688	0.282428
	O2830	O	0.257708	0.458445	0.280175
	O2831	O	0.368915	0.457780	0.252137
	O2832	O	0.324507	0.457419	0.280478
	O2833	O	0.373265	0.207283	0.314659
	O2834	O	0.252269	0.373500	0.347627
	O2835	O	0.378618	0.123596	0.247628
	C2836	C	0.354376	0.213282	0.313225
	C2837	C	0.359159	0.123285	0.313074
	C2838	C	0.354354	0.033460	0.313454
	C2839	C	0.345023	0.033734	0.313994
	C2840	C	0.340245	0.123803	0.314167
	C2841	C	0.345044	0.213492	0.313767
	C2842	C	0.330135	0.124081	0.313062
	C2843	C	0.369266	0.123109	0.314196
	C2844	C	0.302710	0.123690	0.317166
	C2845	C	0.293257	0.123670	0.323730
	C2846	C	0.288650	0.213369	0.326269
	C2847	C	0.279697	0.213389	0.331104
	C2848	C	0.275120	0.123434	0.333715
	C2849	C	0.279706	0.033682	0.331120
	C2850	C	0.288659	0.033677	0.326225
	C2851	C	0.265668	0.123632	0.340312
	C2852	C	0.300845	0.373818	0.281905
	C2853	C	0.290728	0.373981	0.280779
	C2854	C	0.285950	0.463958	0.281026
	C2855	C	0.276618	0.463986	0.281599
	C2856	C	0.271822	0.373992	0.281800
	C2857	C	0.276591	0.283997	0.281502
	C2858	C	0.285926	0.283946	0.280939
	C2859	C	0.261686	0.374166	0.280706
	C2860	C	0.328188	0.373302	0.277843
	C2861	C	0.337623	0.373533	0.271292
	C2862	C	0.342219	0.283684	0.268565
	C2863	C	0.351163	0.283626	0.263726
	C2864	C	0.355817	0.373480	0.261452
	C2865	C	0.351199	0.463382	0.263997
	C2866	C	0.342252	0.463470	0.268812
	C2867	C	0.365252	0.373841	0.254860
	H2868	H	0.354573	0.213328	0.261696
	H2869	H	0.338747	0.213433	0.270272
	H2870	H	0.357962	0.283297	0.312861
	H2871	H	0.341439	0.283511	0.313824
	H2872	H	0.313844	0.123712	0.272096
	H2873	H	0.316993	0.373351	0.323177
	H2874	H	0.251280	0.373871	0.334427
	H2875	H	0.379403	0.123881	0.260761
	H2876	H	0.289491	0.213724	0.280808
	H2877	H	0.272986	0.213638	0.281753
	H2878	H	0.276286	0.283679	0.332973
	H2879	H	0.292084	0.283562	0.324480
	H2880	H	0.273014	0.534010	0.281935
	H2881	H	0.289550	0.534252	0.280930
	H2882	H	0.292072	-0.036654	0.324379
	H2883	H	0.276270	-0.036503	0.332993
	H2884	H	0.341415	-0.036541	0.314243
	H2885	H	0.357951	-0.036554	0.313266
	H2886	H	0.338817	0.533640	0.270659
	H2887	H	0.354646	0.533652	0.262175
	Al2888	Al	0.321387	-0.501464	0.392427
	Al2889	Al	0.321398	-0.251420	0.392491
	Al2890	Al	0.252995	-0.251522	0.360143
	Al2891	Al	0.252953	-0.501799	0.360046
	O2892	O	0.332031	-0.460703	0.407486
	O2893	O	0.320761	-0.376390	0.380109
	O2894	O	0.322031	-0.126390	0.404755
	O2895	O	0.379116	-0.459604	0.409839
	O2896	O	0.312398	-0.460550	0.409555
	O2897	O	0.267869	-0.460715	0.437718
	O2898	O	0.312346	-0.292223	0.409402
	O2899	O	0.310747	-0.210376	0.377270
	O2900	O	0.263614	-0.209863	0.375130
	O2901	O	0.332002	-0.292484	0.407557
	O2902	O	0.330478	-0.210811	0.375440
	O2903	O	0.374900	-0.210621	0.347041
	O2904	O	0.267896	-0.292477	0.437893
	O2905	O	0.310772	-0.042284	0.377276
	O2906	O	0.263624	-0.041566	0.375019
	O2907	O	0.374861	-0.042549	0.346833
	O2908	O	0.330414	-0.042660	0.375279
	O2909	O	0.379108	-0.291130	0.409850
	O2910	O	0.258234	-0.126606	0.442490
	O2911	O	0.384541	-0.376050	0.342192
	C2912	C	0.360210	-0.285904	0.408698
	C2913	C	0.365012	-0.375693	0.408262
	C2914	C	0.360244	-0.465744	0.408518
	C2915	C	0.350927	-0.465775	0.409054
	C2916	C	0.346128	-0.376047	0.409252
	C2917	C	0.350897	-0.285937	0.409198
	C2918	C	0.336009	-0.376431	0.408110
	C2919	C	0.375143	-0.375362	0.409267
	C2920	C	0.308664	-0.376471	0.412133
	C2921	C	0.299177	-0.376340	0.418607
	C2922	C	0.294587	-0.286353	0.421163
	C2923	C	0.285650	-0.286305	0.425966
	C2924	C	0.281041	-0.376129	0.428542
	C2925	C	0.285630	-0.466155	0.426004
	C2926	C	0.294566	-0.466132	0.421206
	C2927	C	0.271578	-0.376541	0.435127
	C2928	C	0.306778	-0.126308	0.376755
	C2929	C	0.296641	-0.126301	0.375608
	C2930	C	0.291863	-0.036322	0.375826
	C2931	C	0.282534	-0.036355	0.376378
	C2932	C	0.277735	-0.126122	0.376650
	C2933	C	0.282510	-0.216142	0.376393
	C2934	C	0.291841	-0.216217	0.375840
	C2935	C	0.267609	-0.125766	0.375619
	C2936	C	0.334125	-0.126660	0.372663
	C2937	C	0.343560	-0.126568	0.366011
	C2938	C	0.348184	-0.216465	0.363643
	C2939	C	0.357132	-0.216462	0.358780
	C2940	C	0.361712	-0.126527	0.356180
	C2941	C	0.357102	-0.036673	0.358621
	C2942	C	0.348149	-0.036639	0.363490
	C2943	C	0.371187	-0.126607	0.349629
	H2944	H	0.360575	-0.286712	0.356940
	H2945	H	0.344760	-0.286794	0.365535
	H2946	H	0.363801	-0.216244	0.408618
	H2947	H	0.347296	-0.215903	0.409531
	H2948	H	0.320039	-0.376174	0.366907
	H2949	H	0.322828	-0.126053	0.417930
	H2950	H	0.257266	-0.126892	0.429288
	H2951	H	0.385240	-0.376255	0.355411
	H2952	H	0.295425	-0.286555	0.375523
	H2953	H	0.278905	-0.286192	0.376552
	H2954	H	0.282189	-0.216394	0.427754
	H2955	H	0.298031	-0.216463	0.419360
	H2956	H	0.278957	0.033722	0.376507
	H2957	H	0.295471	0.033708	0.375506
	H2958	H	0.298028	-0.536182	0.419424
	H2959	H	0.282185	-0.536356	0.427833
	H2960	H	0.347296	-0.535574	0.409188
	H2961	H	0.363843	-0.535653	0.408307
	H2962	H	0.344716	0.033594	0.365245
	H2963	H	0.360510	0.033615	0.356693
	Al2964	Al	0.321383	-0.001503	0.392349
	Al2965	Al	0.321399	0.248602	0.392411
	Al2966	Al	0.252975	0.248642	0.359974
	Al2967	Al	0.252912	-0.001333	0.360020
	O2968	O	0.332026	0.039233	0.407585
	O2969	O	0.320716	0.123719	0.380007
	O2970	O	0.322097	0.373680	0.404738
	O2971	O	0.379148	0.040038	0.409804
	O2972	O	0.312306	0.039628	0.409148
	O2973	O	0.267923	0.039700	0.437884
	O2974	O	0.312376	0.207930	0.409414
	O2975	O	0.310771	0.289382	0.377152
	O2976	O	0.263643	0.289280	0.375082
	O2977	O	0.332013	0.207493	0.407594
	O2978	O	0.330474	0.289749	0.375491
	O2979	O	0.374796	0.289448	0.346766
	O2980	O	0.267951	0.207648	0.437925
	O2981	O	0.310758	0.457363	0.377340
	O2982	O	0.263627	0.457338	0.375113
	O2983	O	0.374843	0.457646	0.346793
	O2984	O	0.330479	0.457855	0.375421
	O2985	O	0.379174	0.208278	0.409851
	O2986	O	0.258187	0.373541	0.442403
	O2987	O	0.384566	0.123741	0.342331
	C2988	C	0.360249	0.213966	0.408584
	C2989	C	0.365068	0.124232	0.408332
	C2990	C	0.360301	0.034362	0.408626
	C2991	C	0.350982	0.034134	0.409150
	C2992	C	0.346152	0.123797	0.409364
	C2993	C	0.350928	0.213710	0.409097
	C2994	C	0.336034	0.123360	0.408148
	C2995	C	0.375160	0.124214	0.409312
	C2996	C	0.308653	0.123705	0.411952
	C2997	C	0.299221	0.123664	0.418733
	C2998	C	0.294611	0.213412	0.421164
	C2999	C	0.285688	0.213290	0.426014
	C3000	C	0.281137	0.123487	0.428767
	C3001	C	0.285732	0.033757	0.426219
	C3002	C	0.294657	0.033802	0.421338
	C3003	C	0.271654	0.123568	0.435291
	C3004	C	0.306751	0.373463	0.376699
	C3005	C	0.296638	0.373798	0.375571
	C3006	C	0.291839	0.463613	0.375870
	C3007	C	0.282514	0.463458	0.376437
	C3008	C	0.277716	0.373612	0.376649
	C3009	C	0.282512	0.283767	0.376437
	C3010	C	0.291837	0.283936	0.375855
	C3011	C	0.267629	0.373416	0.375624
	C3012	C	0.334157	0.373649	0.372763
	C3013	C	0.343611	0.373523	0.366263
	C3014	C	0.348224	0.283691	0.363771
	C3015	C	0.357139	0.283817	0.358781
	C3016	C	0.361701	0.373788	0.356136
	C3017	C	0.357107	0.463505	0.358732
	C3018	C	0.348186	0.463431	0.363687
	C3019	C	0.371134	0.373529	0.349498
	H3020	H	0.360575	0.213804	0.356923
	H3021	H	0.344837	0.213402	0.365718
	H3022	H	0.363843	0.284111	0.408363
	H3023	H	0.347297	0.283499	0.409298
	H3024	H	0.319710	0.123726	0.366784
	H3025	H	0.323079	0.373604	0.417933
	H3026	H	0.257270	0.373249	0.429265
	H3027	H	0.385472	0.123854	0.355563
	H3028	H	0.295435	0.213920	0.375634
	H3029	H	0.278919	0.213634	0.376726
	H3030	H	0.282252	0.283457	0.427846
	H3031	H	0.298052	0.283363	0.419324
	H3032	H	0.278904	0.533453	0.376704
	H3033	H	0.295434	0.533716	0.375736
	H3034	H	0.298111	-0.036418	0.419657
	H3035	H	0.282320	-0.036526	0.428164
	H3036	H	0.347418	-0.036223	0.409410
	H3037	H	0.363919	-0.035510	0.408465
	H3038	H	0.344748	0.533391	0.365568
	H3039	H	0.360525	0.533554	0.356890
	Al3040	Al	0.326840	-0.500354	0.488846
	Al3041	Al	0.326805	-0.251285	0.488867
	Al3042	Al	0.258858	-0.251623	0.454867
	Al3043	Al	0.258853	-0.501433	0.454754
	O3044	O	0.336160	-0.459511	0.507566
	O3045	O	0.326478	-0.375868	0.476656
	O3046	O	0.326760	-0.125874	0.501210
	O3047	O	0.372783	-0.459617	0.576372
	O3048	O	0.317365	-0.460153	0.504693
	O3049	O	0.273879	-0.460288	0.536506
	O3050	O	0.317397	-0.291905	0.504777
	O3051	O	0.316631	-0.210066	0.472090
	O3052	O	0.269483	-0.210704	0.470069
	O3053	O	0.336109	-0.291744	0.507586
	O3054	O	0.336268	-0.209946	0.473449
	O3055	O	0.379964	-0.209296	0.442652
	O3056	O	0.273873	-0.291808	0.536533
	O3057	O	0.316601	-0.041398	0.472209
	O3058	O	0.269502	-0.042567	0.470085
	O3059	O	0.379912	-0.041369	0.442449
	O3060	O	0.336256	-0.041817	0.473409
	O3061	O	0.372823	-0.291563	0.576362
	O3062	O	0.264030	-0.126123	0.539532
	O3063	O	0.389275	-0.375364	0.438789
	C3064	C	0.358223	-0.286564	0.548562
	C3065	C	0.361962	-0.375475	0.555595
	C3066	C	0.358277	-0.464334	0.548400
	C3067	C	0.351023	-0.464231	0.534624
	C3068	C	0.347204	-0.375446	0.527796
	C3069	C	0.350960	-0.286679	0.534809
	C3070	C	0.339272	-0.375458	0.513180
	C3071	C	0.369717	-0.375520	0.570612
	C3072	C	0.313775	-0.376177	0.507685
	C3073	C	0.304529	-0.376231	0.515047
	C3074	C	0.300076	-0.286367	0.518086
	C3075	C	0.291342	-0.286324	0.524002
	C3076	C	0.286855	-0.376002	0.526972
	C3077	C	0.291324	-0.465879	0.524042
	C3078	C	0.300059	-0.465997	0.518137
	C3079	C	0.277530	-0.375955	0.533862
	C3080	C	0.312621	-0.125866	0.471700
	C3081	C	0.302498	-0.125970	0.470775
	C3082	C	0.297704	-0.036218	0.471099
	C3083	C	0.288390	-0.036370	0.471661
	C3084	C	0.283621	-0.126490	0.471865
	C3085	C	0.288414	-0.216331	0.471673
	C3086	C	0.297736	-0.216040	0.471107
	C3087	C	0.273484	-0.126661	0.470665
	C3088	C	0.339939	-0.125739	0.470825
	C3089	C	0.349272	-0.125674	0.464062
	C3090	C	0.353805	-0.215438	0.461427
	C3091	C	0.362578	-0.215348	0.455775
	C3092	C	0.367043	-0.125522	0.452652
	C3093	C	0.362542	-0.035729	0.455516
	C3094	C	0.353765	-0.035844	0.461161
	C3095	C	0.376319	-0.125249	0.445423
	H3096	H	0.366008	-0.285126	0.453671
	H3097	H	0.350414	-0.285179	0.463726
	H3098	H	0.361016	-0.217711	0.553958
	H3099	H	0.348141	-0.217749	0.529514
	H3100	H	0.325643	-0.375952	0.463477
	H3101	H	0.326669	-0.125721	0.514446
	H3102	H	0.263245	-0.125906	0.526230
	H3103	H	0.389076	-0.375256	0.451999
	H3104	H	0.301339	-0.286065	0.470841
	H3105	H	0.284816	-0.285953	0.471834
	H3106	H	0.287949	-0.216775	0.526263
	H3107	H	0.303459	-0.216724	0.515757
	H3108	H	0.284814	0.033700	0.471850
	H3109	H	0.301298	0.033815	0.470840
	H3110	H	0.303423	-0.535801	0.515752
	H3111	H	0.287916	-0.535627	0.526285
	H3112	H	0.348268	-0.532885	0.529233
	H3113	H	0.361095	-0.533278	0.553702
	H3114	H	0.350347	0.033924	0.463286
	H3115	H	0.365941	0.034142	0.453221
	Al3116	Al	0.326818	-0.000095	0.488903
	Al3117	Al	0.326838	0.248851	0.488895
	Al3118	Al	0.258863	0.248533	0.454791
	Al3119	Al	0.258882	-0.001522	0.454817
	O3120	O	0.336159	0.040598	0.507599
	O3121	O	0.326585	0.124211	0.476793
	O3122	O	0.326772	0.374518	0.501187
	O3123	O	0.372899	0.040790	0.576222
	O3124	O	0.317380	0.039998	0.504825
	O3125	O	0.273737	0.039923	0.536182
	O3126	O	0.317383	0.208265	0.504867
	O3127	O	0.316602	0.289843	0.472159
	O3128	O	0.269479	0.290017	0.469941
	O3129	O	0.336100	0.208516	0.507765
	O3130	O	0.336337	0.289984	0.473714
	O3131	O	0.379997	0.290481	0.442527
	O3132	O	0.273756	0.208266	0.536306
	O3133	O	0.316592	0.458251	0.472213
	O3134	O	0.269526	0.458128	0.469773
	O3135	O	0.379921	0.458688	0.442384
	O3136	O	0.336266	0.458330	0.473486
	O3137	O	0.372866	0.208946	0.576210
	O3138	O	0.264127	0.373773	0.539598
	O3139	O	0.389384	0.124286	0.438767
	C3140	C	0.358263	0.213325	0.548489
	C3141	C	0.362046	0.124487	0.555394
	C3142	C	0.358355	0.035666	0.548328
	C3143	C	0.351080	0.035571	0.534616
	C3144	C	0.347263	0.124541	0.527768
	C3145	C	0.350992	0.213198	0.534819
	C3146	C	0.339316	0.124368	0.513208
	C3147	C	0.369822	0.124876	0.570399
	C3148	C	0.313776	0.124170	0.507820
	C3149	C	0.304510	0.123879	0.515154
	C3150	C	0.300024	0.213698	0.518069
	C3151	C	0.291248	0.213814	0.523774
	C3152	C	0.286736	0.124215	0.526707
	C3153	C	0.291221	0.034369	0.523861
	C3154	C	0.300002	0.034265	0.518149
	C3155	C	0.277421	0.123921	0.533616
	C3156	C	0.312603	0.374006	0.471765
	C3157	C	0.302490	0.374010	0.470874
	C3158	C	0.297728	0.464046	0.471144
	C3159	C	0.288409	0.463926	0.471669
	C3160	C	0.283614	0.374083	0.471825
	C3161	C	0.288383	0.284124	0.471687
	C3162	C	0.297695	0.284199	0.471166
	C3163	C	0.273497	0.374013	0.470550
	C3164	C	0.339978	0.374136	0.471016
	C3165	C	0.349321	0.373991	0.464207
	C3166	C	0.353860	0.284394	0.461570
	C3167	C	0.362615	0.284299	0.455776
	C3168	C	0.367058	0.374031	0.452551
	C3169	C	0.362548	0.463609	0.455354
	C3170	C	0.353778	0.463681	0.461129
	C3171	C	0.376341	0.374371	0.445287
	H3172	H	0.366030	0.214419	0.453694
	H3173	H	0.350519	0.214751	0.464045
	H3174	H	0.361059	0.282460	0.553868
	H3175	H	0.348155	0.282173	0.529555
	H3176	H	0.326010	0.123855	0.463626
	H3177	H	0.326541	0.375004	0.514415
	H3178	H	0.263360	0.373435	0.526390
	H3179	H	0.389404	0.124902	0.452014
	H3180	H	0.301323	0.214294	0.470861
	H3181	H	0.284791	0.214033	0.471836
	H3182	H	0.287876	0.283650	0.526063
	H3183	H	0.303398	0.283615	0.515812
	H3184	H	0.284784	0.533906	0.471781
	H3185	H	0.301310	0.534113	0.470802
	H3186	H	0.303400	-0.035548	0.515995
	H3187	H	0.287837	-0.035229	0.526199
	H3188	H	0.348293	-0.033054	0.529194
	H3189	H	0.361198	-0.033198	0.553617
	H3190	H	0.350360	0.533177	0.463259
	H3191	H	0.365890	0.533305	0.452987
	Al3192	Al	0.318772	-0.500550	0.659924
	Al3193	Al	0.318770	-0.250589	0.659948
	Al3194	Al	0.264386	-0.250434	0.551811
	Al3195	Al	0.264409	-0.501447	0.551777
	O3196	O	0.326887	-0.459123	0.681245
	O3197	O	0.319471	-0.375459	0.648130
	O3198	O	0.318052	-0.125727	0.671819
	O3199	O	0.360596	-0.459356	0.756499
	O3200	O	0.308656	-0.460034	0.673241
	O3201	O	0.266261	-0.460043	0.708815
	O3202	O	0.308650	-0.291630	0.673224
	O3203	O	0.310432	-0.210114	0.638997
	O3204	O	0.273673	-0.209886	0.570572
	O3205	O	0.326941	-0.291104	0.681119
	O3206	O	0.328793	-0.209018	0.646550
	O3207	O	0.371077	-0.209457	0.610534
	O3208	O	0.266238	-0.291491	0.708812
	O3209	O	0.310346	-0.041960	0.639248
	O3210	O	0.273696	-0.042012	0.570387
	O3211	O	0.371115	-0.041057	0.610592
	O3212	O	0.328793	-0.040576	0.646427
	O3213	O	0.360642	-0.291278	0.756503
	O3214	O	0.256866	-0.125331	0.710340
	O3215	O	0.380501	-0.375222	0.609045
	C3216	C	0.347090	-0.285786	0.726429
	C3217	C	0.350536	-0.374993	0.734075
	C3218	C	0.347137	-0.464102	0.726351
	C3219	C	0.340455	-0.464047	0.711293
	C3220	C	0.336989	-0.374987	0.703678
	C3221	C	0.340406	-0.285948	0.711385
	C3222	C	0.329780	-0.375199	0.687457
	C3223	C	0.357774	-0.375033	0.750256
	C3224	C	0.305116	-0.375861	0.676231
	C3225	C	0.296012	-0.375809	0.684002
	C3226	C	0.291708	-0.286203	0.687555
	C3227	C	0.283212	-0.285934	0.694635
	C3228	C	0.278912	-0.375400	0.698221
	C3229	C	0.283206	-0.464787	0.694589
	C3230	C	0.291676	-0.465123	0.687491
	C3231	C	0.269814	-0.375746	0.705939
	C3232	C	0.307314	-0.126011	0.633360
	C3233	C	0.299542	-0.125664	0.618322
	C3234	C	0.295763	-0.036754	0.611404
	C3235	C	0.288485	-0.036772	0.597745
	C3236	C	0.284752	-0.125660	0.590672
	C3237	C	0.288547	-0.214631	0.597536
	C3238	C	0.295840	-0.214572	0.611172
	C3239	C	0.276829	-0.125854	0.576113
	C3240	C	0.332313	-0.124837	0.643442
	C3241	C	0.341368	-0.124926	0.635530
	C3242	C	0.345679	-0.214088	0.632083
	C3243	C	0.354165	-0.214016	0.624991
	C3244	C	0.358476	-0.124977	0.621382
	C3245	C	0.354192	-0.035634	0.624943
	C3246	C	0.345702	-0.035690	0.632039
	C3247	C	0.367528	-0.125122	0.613455
	H3248	H	0.357423	-0.282618	0.622120
	H3249	H	0.342371	-0.282796	0.634936
	H3250	H	0.349679	-0.216564	0.732283
	H3251	H	0.337831	-0.216699	0.705584
	H3252	H	0.320133	-0.375921	0.635111
	H3253	H	0.317266	-0.125793	0.684787
	H3254	H	0.257621	-0.124990	0.697339
	H3255	H	0.379687	-0.374733	0.622003
	H3256	H	0.298690	-0.283599	0.616452
	H3257	H	0.285752	-0.283361	0.592101
	H3258	H	0.279879	-0.216917	0.697427
	H3259	H	0.295042	-0.217511	0.684785
	H3260	H	0.285628	0.032067	0.592486
	H3261	H	0.298530	0.032131	0.616938
	H3262	H	0.294961	-0.534367	0.684672
	H3263	H	0.279883	-0.533733	0.697314
	H3264	H	0.337904	-0.533211	0.705399
	H3265	H	0.349736	-0.533296	0.732083
	H3266	H	0.342404	0.033077	0.634867
	H3267	H	0.357479	0.033167	0.622014
	Al3268	Al	0.318737	-0.000531	0.659959
	Al3269	Al	0.318740	0.249323	0.659980
	Al3270	Al	0.264401	0.249487	0.551878
	Al3271	Al	0.264379	-0.001464	0.551719
	O3272	O	0.326923	0.040589	0.681106
	O3273	O	0.319368	0.124309	0.648101
	O3274	O	0.318074	0.374470	0.671846
	O3275	O	0.360606	0.041240	0.756666
	O3276	O	0.308652	0.040143	0.673348
	O3277	O	0.266223	0.040235	0.708624
	O3278	O	0.308639	0.208573	0.673328
	O3279	O	0.310391	0.290070	0.639130
	O3280	O	0.273715	0.289616	0.570543
	O3281	O	0.326922	0.208500	0.681214
	O3282	O	0.328817	0.290150	0.646592
	O3283	O	0.371106	0.290297	0.610452
	O3284	O	0.266172	0.208620	0.708587
	O3285	O	0.310416	0.458047	0.639076
	O3286	O	0.273666	0.457944	0.570608
	O3287	O	0.371041	0.458761	0.610355
	O3288	O	0.328819	0.458735	0.646437
	O3289	O	0.360611	0.209080	0.756592
	O3290	O	0.256870	0.374467	0.710325
	O3291	O	0.380492	0.124510	0.608995
	C3292	C	0.347119	0.213595	0.726324
	C3293	C	0.350558	0.124623	0.734080
	C3294	C	0.347114	0.035508	0.726406
	C3295	C	0.340426	0.035709	0.711360
	C3296	C	0.336994	0.124722	0.703636
	C3297	C	0.340436	0.213840	0.711276
	C3298	C	0.329782	0.124459	0.687420
	C3299	C	0.357734	0.124986	0.750357
	C3300	C	0.305099	0.124306	0.676305
	C3301	C	0.296023	0.124707	0.684116
	C3302	C	0.291719	0.214215	0.687687
	C3303	C	0.283202	0.214418	0.694597
	C3304	C	0.278862	0.124999	0.697975
	C3305	C	0.283187	0.035574	0.694536
	C3306	C	0.291714	0.035234	0.687622
	C3307	C	0.269755	0.124657	0.705698
	C3308	C	0.307325	0.374075	0.633332
	C3309	C	0.299558	0.373730	0.618270
	C3310	C	0.295770	0.462501	0.611364
	C3311	C	0.288480	0.462466	0.597737
	C3312	C	0.284777	0.373512	0.590687
	C3313	C	0.288573	0.284503	0.597562
	C3314	C	0.295859	0.284643	0.611206
	C3315	C	0.276833	0.373815	0.576145
	C3316	C	0.332369	0.374352	0.643584
	C3317	C	0.341421	0.374460	0.635670
	C3318	C	0.345714	0.285209	0.632077
	C3319	C	0.354180	0.285131	0.624909
	C3320	C	0.358488	0.374291	0.621389
	C3321	C	0.354185	0.463698	0.624936
	C3322	C	0.345708	0.463815	0.632073
	C3323	C	0.367516	0.374393	0.613360
	H3324	H	0.357458	0.216564	0.622038
	H3325	H	0.342400	0.216284	0.634940
	H3326	H	0.349660	0.282759	0.732208
	H3327	H	0.337853	0.283092	0.705435
	H3328	H	0.320026	0.124321	0.635068
	H3329	H	0.317357	0.374474	0.684844
	H3330	H	0.257453	0.374422	0.697332
	H3331	H	0.379763	0.124594	0.622071
	H3332	H	0.298720	0.215681	0.616482
	H3333	H	0.285775	0.215491	0.592241
	H3334	H	0.279929	0.283458	0.697402
	H3335	H	0.295073	0.282965	0.685022
	H3336	H	0.285574	0.531212	0.592596
	H3337	H	0.298547	0.531399	0.616758
	H3338	H	0.295021	-0.033376	0.684926
	H3339	H	0.279845	-0.033101	0.697327
	H3340	H	0.337847	-0.033582	0.705538
	H3341	H	0.349632	-0.033497	0.732302
	H3342	H	0.342394	0.532783	0.634833
	H3343	H	0.357470	0.532291	0.622051
	Al3344	Al	0.306240	-0.499719	0.839887
	Al3345	Al	0.306234	-0.250008	0.839810
	Al3346	Al	0.256179	-0.250583	0.722139
	Al3347	Al	0.256145	-0.500390	0.722175
	O3348	O	0.314630	-0.459100	0.860750
	O3349	O	0.306874	-0.375009	0.827996
	O3350	O	0.305578	-0.124907	0.851781
	O3351	O	0.351276	-0.458520	0.929473
	O3352	O	0.296161	-0.459042	0.853381
	O3353	O	0.253903	-0.458869	0.889461
	O3354	O	0.296183	-0.290741	0.853447
	O3355	O	0.298070	-0.208703	0.818639
	O3356	O	0.264372	-0.208998	0.743302
	O3357	O	0.314597	-0.290906	0.860739
	O3358	O	0.316338	-0.209110	0.826518
	O3359	O	0.358758	-0.209532	0.791053
	O3360	O	0.253877	-0.290395	0.889476
	O3361	O	0.298058	-0.040866	0.818683
	O3362	O	0.264340	-0.040998	0.743270
	O3363	O	0.358778	-0.040982	0.791232
	O3364	O	0.316371	-0.040413	0.826561
	O3365	O	0.351271	-0.290433	0.929461
	O3366	O	0.244483	-0.124771	0.890955
	O3367	O	0.368168	-0.375085	0.789577
	C3368	C	0.336452	-0.285485	0.902273
	C3369	C	0.340218	-0.374490	0.909217
	C3370	C	0.336444	-0.463472	0.902311
	C3371	C	0.329170	-0.463579	0.888640
	C3372	C	0.325455	-0.374515	0.881564
	C3373	C	0.329178	-0.285483	0.888589
	C3374	C	0.317702	-0.374891	0.866496
	C3375	C	0.348120	-0.374613	0.923904
	C3376	C	0.292624	-0.374818	0.856412
	C3377	C	0.283575	-0.374674	0.864318
	C3378	C	0.279273	-0.285096	0.867867
	C3379	C	0.270790	-0.285091	0.874971
	C3380	C	0.266477	-0.374549	0.878519
	C3381	C	0.270752	-0.464146	0.874890
	C3382	C	0.279235	-0.464089	0.867820
	C3383	C	0.257438	-0.374560	0.886500
	C3384	C	0.295208	-0.124773	0.812391
	C3385	C	0.287999	-0.124709	0.796134
	C3386	C	0.284554	-0.035992	0.788492
	C3387	C	0.277847	-0.036156	0.773492
	C3388	C	0.274409	-0.125068	0.765800
	C3389	C	0.277840	-0.213878	0.773466
	C3390	C	0.284537	-0.213584	0.788473
	C3391	C	0.267203	-0.125015	0.749572
	C3392	C	0.319909	-0.124723	0.823649
	C3393	C	0.328993	-0.124924	0.815883
	C3394	C	0.333295	-0.214261	0.812369
	C3395	C	0.341789	-0.214332	0.805374
	C3396	C	0.346114	-0.125090	0.801830
	C3397	C	0.341830	-0.035522	0.805515
	C3398	C	0.333334	-0.035420	0.812513
	C3399	C	0.355216	-0.125341	0.794082
	H3400	H	0.345084	-0.282815	0.802580
	H3401	H	0.330020	-0.283321	0.815207
	H3402	H	0.339246	-0.216437	0.907683
	H3403	H	0.326349	-0.216856	0.883211
	H3404	H	0.307559	-0.374930	0.814999
	H3405	H	0.304873	-0.125383	0.864710
	H3406	H	0.245199	-0.124675	0.877957
	H3407	H	0.367424	-0.374968	0.802524
	H3408	H	0.287113	-0.282641	0.794311
	H3409	H	0.275238	-0.282965	0.767686
	H3410	H	0.267504	-0.216166	0.877877
	H3411	H	0.282581	-0.215890	0.865042
	H3412	H	0.275243	0.032899	0.767710
	H3413	H	0.287114	0.033271	0.794320
	H3414	H	0.282523	-0.533219	0.864928
	H3415	H	0.267459	-0.533394	0.877712
	H3416	H	0.326358	-0.532362	0.883273
	H3417	H	0.339235	-0.532273	0.907747
	H3418	H	0.330046	0.033198	0.815539
	H3419	H	0.345179	0.033047	0.802853
	Al3420	Al	0.306216	0.000390	0.839914
	Al3421	Al	0.306235	0.249946	0.839829
	Al3422	Al	0.256155	0.249560	0.722191
	Al3423	Al	0.256184	-0.000075	0.722171
	O3424	O	0.314608	0.041259	0.860769
	O3425	O	0.306945	0.125166	0.828038
	O3426	O	0.305544	0.375145	0.851705
	O3427	O	0.351308	0.041725	0.929298
	O3428	O	0.296179	0.040855	0.853377
	O3429	O	0.253886	0.041281	0.889387
	O3430	O	0.296233	0.209189	0.853395
	O3431	O	0.298063	0.290624	0.818620
	O3432	O	0.264392	0.290418	0.743278
	O3433	O	0.314625	0.209407	0.860735
	O3434	O	0.316330	0.290941	0.826530
	O3435	O	0.358770	0.290771	0.791079
	O3436	O	0.253893	0.209643	0.889436
	O3437	O	0.298085	0.458672	0.818646
	O3438	O	0.264308	0.458452	0.743408
	O3439	O	0.358789	0.459089	0.791163
	O3440	O	0.316306	0.459466	0.826452
	O3441	O	0.351300	0.209585	0.929247
	O3442	O	0.244528	0.375169	0.890943
	O3443	O	0.368128	0.124814	0.789593
	C3444	C	0.336444	0.214073	0.902257
	C3445	C	0.340159	0.125169	0.909177
	C3446	C	0.336359	0.036244	0.902306
	C3447	C	0.329087	0.036178	0.888645
	C3448	C	0.325419	0.125256	0.881598
	C3449	C	0.329161	0.214185	0.888599
	C3450	C	0.317672	0.125423	0.866523
	C3451	C	0.348128	0.125440	0.923705
	C3452	C	0.292650	0.125094	0.856352
	C3453	C	0.283604	0.125503	0.864306
	C3454	C	0.279324	0.214946	0.867968
	C3455	C	0.270843	0.215212	0.875140
	C3456	C	0.266505	0.125736	0.878568
	C3457	C	0.270822	0.036347	0.875026
	C3458	C	0.279294	0.036212	0.867900
	C3459	C	0.257441	0.125518	0.886448
	C3460	C	0.295218	0.374640	0.812398
	C3461	C	0.287986	0.374982	0.796223
	C3462	C	0.284589	0.463785	0.788424
	C3463	C	0.277908	0.463627	0.773430
	C3464	C	0.274410	0.374685	0.765838
	C3465	C	0.277833	0.285935	0.773593
	C3466	C	0.284514	0.286139	0.788596
	C3467	C	0.267196	0.374614	0.749602
	C3468	C	0.319902	0.375386	0.823657
	C3469	C	0.328991	0.375117	0.815954
	C3470	C	0.333282	0.285812	0.812314
	C3471	C	0.341792	0.285811	0.805335
	C3472	C	0.346144	0.375027	0.801925
	C3473	C	0.341814	0.464378	0.805469
	C3474	C	0.333314	0.464355	0.812476
	C3475	C	0.355223	0.374888	0.794096
	H3476	H	0.345082	0.216804	0.802483
	H3477	H	0.329964	0.216978	0.815017
	H3478	H	0.339270	0.283177	0.907576
	H3479	H	0.326357	0.283266	0.883249
	H3480	H	0.307788	0.125212	0.815087
	H3481	H	0.304982	0.375163	0.864714
	H3482	H	0.245265	0.375218	0.877942
	H3483	H	0.367263	0.124735	0.802514
	H3484	H	0.287124	0.217299	0.794454
	H3485	H	0.275249	0.216838	0.767718
	H3486	H	0.267550	0.283946	0.878018
	H3487	H	0.282660	0.283523	0.865253
	H3488	H	0.275341	0.532348	0.767472
	H3489	H	0.287208	0.532601	0.794177
	H3490	H	0.282565	-0.033033	0.865083
	H3491	H	0.267524	-0.032537	0.877827
	H3492	H	0.326227	-0.033006	0.883381
	H3493	H	0.339150	-0.032747	0.907738
	H3494	H	0.330027	0.533718	0.815329
	H3495	H	0.345130	0.533336	0.802711
	Al3496	Al	0.298183	-0.499696	1.011136
	Al3497	Al	0.298150	-0.248708	1.011034
	Al3498	Al	0.243831	-0.249728	0.902864
	Al3499	Al	0.243844	-0.499837	0.902867
	O3500	O	0.308393	-0.458226	1.027910
	O3501	O	0.298230	-0.374168	0.998806
	O3502	O	0.298499	-0.124128	1.023274
	O3503	O	0.355488	-0.460172	1.030287
	O3504	O	0.288730	-0.458558	1.026439
	O3505	O	0.245045	-0.458689	1.057214
	O3506	O	0.288747	-0.290395	1.026452
	O3507	O	0.288821	-0.208932	0.992391
	O3508	O	0.252201	-0.209177	0.923683
	O3509	O	0.308440	-0.289861	1.027611
	O3510	O	0.307539	-0.207691	0.995022
	O3511	O	0.351111	-0.208739	0.963545
	O3512	O	0.245069	-0.290500	1.057226
	O3513	O	0.288834	-0.040948	0.992336
	O3514	O	0.252242	-0.041002	0.923585
	O3515	O	0.351121	-0.040479	0.963456
	O3516	O	0.307623	-0.039705	0.995245
	O3517	O	0.355543	-0.291776	1.029962
	O3518	O	0.235592	-0.124457	1.060884
	O3519	O	0.360887	-0.374609	0.960368
	C3520	C	0.336664	-0.285440	1.028451
	C3521	C	0.341418	-0.375484	1.028237
	C3522	C	0.336590	-0.465297	1.028384
	C3523	C	0.327268	-0.465063	1.028922
	C3524	C	0.322519	-0.374883	1.029245
	C3525	C	0.327335	-0.285103	1.028991
	C3526	C	0.312412	-0.374244	1.028340
	C3527	C	0.351521	-0.375929	1.029481
	C3528	C	0.285051	-0.374619	1.029012
	C3529	C	0.275684	-0.374549	1.035609
	C3530	C	0.271200	-0.284855	1.038538
	C3531	C	0.262426	-0.284978	1.044198
	C3532	C	0.257930	-0.374671	1.047095
	C3533	C	0.262400	-0.464437	1.044041
	C3534	C	0.271163	-0.464098	1.038362
	C3535	C	0.248670	-0.374660	1.054330
	C3536	C	0.285678	-0.124803	0.986769
	C3537	C	0.277760	-0.124926	0.972196
	C3538	C	0.274027	-0.035937	0.965178
	C3539	C	0.266754	-0.036066	0.951450
	C3540	C	0.263023	-0.124966	0.944502
	C3541	C	0.266722	-0.213824	0.951590
	C3542	C	0.274003	-0.213899	0.965299
	C3543	C	0.255278	-0.124850	0.929408
	C3544	C	0.311210	-0.123892	0.992321
	C3545	C	0.320465	-0.123856	0.984963
	C3546	C	0.324913	-0.213634	0.981929
	C3547	C	0.333655	-0.213780	0.976061
	C3548	C	0.338168	-0.124241	0.973131
	C3549	C	0.333692	-0.034307	0.975902
	C3550	C	0.324944	-0.034110	0.981791
	C3551	C	0.347467	-0.124441	0.966230
	H3552	H	0.337030	-0.283553	0.973870
	H3553	H	0.321511	-0.283407	0.984242
	H3554	H	0.340295	-0.215592	1.028268
	H3555	H	0.323781	-0.214822	1.029246
	H3556	H	0.298490	-0.374244	0.985590
	H3557	H	0.299416	-0.124388	1.036419
	H3558	H	0.235773	-0.124684	1.047684
	H3559	H	0.361494	-0.374193	0.973542
	H3560	H	0.276800	-0.283103	0.970579
	H3561	H	0.263902	-0.282836	0.946316
	H3562	H	0.259035	-0.215271	1.046543
	H3563	H	0.274617	-0.215148	1.036430
	H3564	H	0.263957	0.032682	0.946080
	H3565	H	0.276848	0.033256	0.970401
	H3566	H	0.274568	-0.533909	1.036118
	H3567	H	0.259028	-0.534128	1.046222
	H3568	H	0.323626	-0.534828	1.029139
	H3569	H	0.340163	-0.535532	1.028130
	H3570	H	0.321578	0.035646	0.984039
	H3571	H	0.337098	0.035112	0.973546
	Al3572	Al	0.298142	0.000321	1.011179
	Al3573	Al	0.298138	0.251247	1.010977
	Al3574	Al	0.243844	0.250067	0.902798
	Al3575	Al	0.243837	0.000446	0.902850
	O3576	O	0.308368	0.041882	1.027685
	O3577	O	0.298135	0.125485	0.998848
	O3578	O	0.298486	0.375543	1.023227
	O3579	O	0.355515	0.040082	1.030266
	O3580	O	0.288723	0.041265	1.026579
	O3581	O	0.245029	0.041660	1.057157
	O3582	O	0.288771	0.209729	1.026491
	O3583	O	0.288829	0.291617	0.992380
	O3584	O	0.252184	0.291333	0.923661
	O3585	O	0.308455	0.210366	1.027482
	O3586	O	0.307540	0.291434	0.994877
	O3587	O	0.351130	0.291186	0.963489
	O3588	O	0.245053	0.210129	1.057278
	O3589	O	0.288859	0.459500	0.992269
	O3590	O	0.252178	0.459508	0.923743
	O3591	O	0.351193	0.459422	0.963707
	O3592	O	0.307642	0.459824	0.995271
	O3593	O	0.355555	0.208455	1.030176
	O3594	O	0.235610	0.375934	1.060854
	O3595	O	0.360869	0.125341	0.960335
	C3596	C	0.336660	0.214790	1.028626
	C3597	C	0.341418	0.124803	1.028353
	C3598	C	0.336594	0.034911	1.028487
	C3599	C	0.327269	0.035205	1.028943
	C3600	C	0.322515	0.125321	1.029217
	C3601	C	0.327334	0.215239	1.029075
	C3602	C	0.312404	0.125927	1.028179
	C3603	C	0.351542	0.124367	1.029626
	C3604	C	0.285090	0.125883	1.029146
	C3605	C	0.275728	0.125985	1.035790
	C3606	C	0.271223	0.215748	1.038619
	C3607	C	0.262455	0.215629	1.044315
	C3608	C	0.257964	0.125617	1.047230
	C3609	C	0.262448	0.035944	1.044184
	C3610	C	0.271220	0.036066	1.038522
	C3611	C	0.248665	0.125982	1.054373
	C3612	C	0.285687	0.375467	0.986742
	C3613	C	0.277744	0.375535	0.972174
	C3614	C	0.273990	0.464536	0.965247
	C3615	C	0.266694	0.464527	0.951583
	C3616	C	0.262962	0.375444	0.944548
	C3617	C	0.266648	0.286487	0.951623
	C3618	C	0.273939	0.286438	0.965277
	C3619	C	0.255222	0.375468	0.929503
	C3620	C	0.311208	0.375652	0.992178
	C3621	C	0.320463	0.375263	0.984883
	C3622	C	0.324880	0.285583	0.981602
	C3623	C	0.333639	0.285414	0.975762
	C3624	C	0.338178	0.375317	0.973095
	C3625	C	0.333746	0.464923	0.976278
	C3626	C	0.325005	0.464911	0.982139
	C3627	C	0.347474	0.375401	0.966182
	H3628	H	0.336991	0.215908	0.973178
	H3629	H	0.321445	0.215786	0.983681
	H3630	H	0.340282	0.284767	1.028430
	H3631	H	0.323743	0.285246	1.029250
	H3632	H	0.298364	0.125144	0.985660
	H3633	H	0.299219	0.375479	1.036430
	H3634	H	0.235764	0.376219	1.047628
	H3635	H	0.361686	0.125998	0.973427
	H3636	H	0.276719	0.217466	0.970704
	H3637	H	0.263801	0.217382	0.946325
	H3638	H	0.259082	0.285536	1.046589
	H3639	H	0.274639	0.285533	1.036414
	H3640	H	0.263867	0.533521	0.946256
	H3641	H	0.276773	0.533450	0.970610
	H3642	H	0.274598	-0.033580	1.036237
	H3643	H	0.259029	-0.033883	1.046357
	H3644	H	0.323667	-0.034746	1.029021
	H3645	H	0.340160	-0.035121	1.028167
	H3646	H	0.321668	0.535005	0.984639
	H3647	H	0.337157	0.534769	0.974184
	Al3648	Al	0.434527	-0.501566	0.077701
	Al3649	Al	0.434559	-0.251479	0.077812
	Al3650	Al	0.366091	-0.250717	0.045280
	Al3651	Al	0.366119	-0.500567	0.045400
	O3652	O	0.445179	-0.460323	0.092855
	O3653	O	0.433867	-0.376411	0.065458
	O3654	O	0.435180	-0.126309	0.090137
	O3655	O	0.492346	-0.459928	0.094885
	O3656	O	0.425460	-0.460760	0.094615
	O3657	O	0.381049	-0.460433	0.123180
	O3658	O	0.425489	-0.292726	0.094716
	O3659	O	0.423852	-0.210991	0.062805
	O3660	O	0.376765	-0.209587	0.060410
	O3661	O	0.445213	-0.291993	0.092751
	O3662	O	0.443534	-0.210295	0.060757
	O3663	O	0.488019	-0.209788	0.032300
	O3664	O	0.381047	-0.292225	0.123125
	O3665	O	0.423926	-0.042734	0.062569
	O3666	O	0.376799	-0.041323	0.060436
	O3667	O	0.487966	-0.041902	0.032137
	O3668	O	0.443542	-0.042361	0.060693
	O3669	O	0.492349	-0.291848	0.095025
	O3670	O	0.371313	-0.126438	0.127794
	O3671	O	0.497684	-0.375807	0.027688
	C3672	C	0.473417	-0.286175	0.093596
	C3673	C	0.478218	-0.376069	0.093371
	C3674	C	0.473421	-0.466004	0.093584
	C3675	C	0.464089	-0.466263	0.094138
	C3676	C	0.459299	-0.376397	0.094388
	C3677	C	0.464072	-0.286329	0.094122
	C3678	C	0.449186	-0.376293	0.093354
	C3679	C	0.488353	-0.375870	0.094443
	C3680	C	0.421771	-0.376742	0.097296
	C3681	C	0.412310	-0.376717	0.103811
	C3682	C	0.407736	-0.286816	0.106502
	C3683	C	0.398813	-0.286752	0.111378
	C3684	C	0.394177	-0.376487	0.113840
	C3685	C	0.398786	-0.466336	0.111333
	C3686	C	0.407712	-0.466545	0.106459
	C3687	C	0.384711	-0.376407	0.120373
	C3688	C	0.419916	-0.126681	0.062093
	C3689	C	0.409783	-0.126297	0.061025
	C3690	C	0.405012	-0.036167	0.061211
	C3691	C	0.395681	-0.035975	0.061743
	C3692	C	0.390881	-0.125872	0.061991
	C3693	C	0.395656	-0.216040	0.061870
	C3694	C	0.404976	-0.216200	0.061375
	C3695	C	0.380755	-0.125503	0.061009
	C3696	C	0.447237	-0.126401	0.058010
	C3697	C	0.456684	-0.126339	0.051375
	C3698	C	0.461317	-0.216079	0.048836
	C3699	C	0.470249	-0.215964	0.044013
	C3700	C	0.474843	-0.126044	0.041444
	C3701	C	0.470226	-0.036281	0.043970
	C3702	C	0.461291	-0.036485	0.048839
	C3703	C	0.484301	-0.125901	0.034887
	H3704	H	0.473686	-0.286192	0.042214
	H3705	H	0.457858	-0.286027	0.050686
	H3706	H	0.476997	-0.215945	0.093346
	H3707	H	0.460491	-0.216217	0.094326
	H3708	H	0.432980	-0.375884	0.052287
	H3709	H	0.436020	-0.126356	0.103344
	H3710	H	0.370385	-0.126161	0.114638
	H3711	H	0.498619	-0.375561	0.040814
	H3712	H	0.408546	-0.286329	0.061109
	H3713	H	0.392043	-0.285873	0.062135
	H3714	H	0.395364	-0.216675	0.113222
	H3715	H	0.411168	-0.216771	0.104648
	H3716	H	0.392086	0.034218	0.061886
	H3717	H	0.408622	0.033906	0.060781
	H3718	H	0.411145	-0.536637	0.104592
	H3719	H	0.395343	-0.536630	0.113142
	H3720	H	0.460511	-0.536330	0.094380
	H3721	H	0.477003	-0.536237	0.093299
	H3722	H	0.457863	0.033629	0.050640
	H3723	H	0.473666	0.033801	0.042140
	Al3724	Al	0.434536	-0.001423	0.077761
	Al3725	Al	0.434549	0.248400	0.077715
	Al3726	Al	0.366112	0.249332	0.045448
	Al3727	Al	0.366147	-0.000512	0.045469
	O3728	O	0.445238	0.039461	0.092652
	O3729	O	0.433918	0.123473	0.065387
	O3730	O	0.435181	0.373661	0.090093
	O3731	O	0.492331	0.039418	0.095097
	O3732	O	0.425515	0.039669	0.094765
	O3733	O	0.381082	0.039401	0.123246
	O3734	O	0.425473	0.207552	0.094740
	O3735	O	0.423885	0.288943	0.062628
	O3736	O	0.376736	0.290840	0.060623
	O3737	O	0.445194	0.207806	0.092748
	O3738	O	0.443577	0.289786	0.060731
	O3739	O	0.488053	0.289987	0.032380
	O3740	O	0.381031	0.207465	0.123065
	O3741	O	0.423920	0.457219	0.062525
	O3742	O	0.376781	0.458802	0.060439
	O3743	O	0.487962	0.458070	0.032152
	O3744	O	0.443555	0.457556	0.060778
	O3745	O	0.492362	0.207617	0.095004
	O3746	O	0.371329	0.373465	0.127910
	O3747	O	0.497676	0.124149	0.027527
	C3748	C	0.473448	0.213490	0.093671
	C3749	C	0.478218	0.123428	0.093456
	C3750	C	0.473388	0.033562	0.093571
	C3751	C	0.464077	0.033678	0.094068
	C3752	C	0.459321	0.123818	0.094430
	C3753	C	0.464127	0.213776	0.094166
	C3754	C	0.449197	0.123760	0.093282
	C3755	C	0.488348	0.123501	0.094545
	C3756	C	0.421783	0.123518	0.097374
	C3757	C	0.412335	0.123466	0.103963
	C3758	C	0.407728	0.213337	0.106524
	C3759	C	0.398787	0.213584	0.111401
	C3760	C	0.394167	0.123633	0.113892
	C3761	C	0.398774	0.033743	0.111424
	C3762	C	0.407715	0.033632	0.106542
	C3763	C	0.384746	0.123558	0.120504
	C3764	C	0.419919	0.373153	0.062050
	C3765	C	0.409806	0.373482	0.060994
	C3766	C	0.405035	0.463640	0.061248
	C3767	C	0.395712	0.464006	0.061803
	C3768	C	0.390871	0.374276	0.062122
	C3769	C	0.395639	0.284143	0.061908
	C3770	C	0.404962	0.283751	0.061347
	C3771	C	0.380761	0.374759	0.061035
	C3772	C	0.447265	0.373731	0.058040
	C3773	C	0.456720	0.373995	0.051493
	C3774	C	0.461314	0.284149	0.048817
	C3775	C	0.470234	0.284145	0.043975
	C3776	C	0.474859	0.373917	0.041502
	C3777	C	0.470264	0.463688	0.044108
	C3778	C	0.461339	0.463895	0.048947
	C3779	C	0.484318	0.373792	0.034936
	H3780	H	0.473691	0.213966	0.042098
	H3781	H	0.457864	0.213985	0.050598
	H3782	H	0.477063	0.283687	0.093406
	H3783	H	0.460515	0.283800	0.094361
	H3784	H	0.433141	0.123792	0.052249
	H3785	H	0.436169	0.373411	0.103292
	H3786	H	0.370428	0.373391	0.114719
	H3787	H	0.498590	0.123841	0.040673
	H3788	H	0.408551	0.213568	0.061203
	H3789	H	0.392040	0.214074	0.062171
	H3790	H	0.395374	0.283720	0.113343
	H3791	H	0.411172	0.283507	0.104721
	H3792	H	0.392131	0.534181	0.061946
	H3793	H	0.408681	0.533576	0.061061
	H3794	H	0.411150	-0.036603	0.104765
	H3795	H	0.395359	-0.036505	0.113367
	H3796	H	0.460476	-0.036406	0.094202
	H3797	H	0.476985	-0.036449	0.093272
	H3798	H	0.457894	0.533836	0.050868
	H3799	H	0.473715	0.533607	0.042391
	Al3800	Al	0.440492	-0.501752	0.172641
	Al3801	Al	0.440512	-0.251443	0.172554
	Al3802	Al	0.372015	-0.251682	0.140119
	Al3803	Al	0.372020	-0.501593	0.140273
	O3804	O	0.451164	-0.460357	0.187566
	O3805	O	0.439791	-0.376575	0.160314
	O3806	O	0.441151	-0.126242	0.184870
	O3807	O	0.498295	-0.460413	0.189713
	O3808	O	0.431464	-0.460877	0.189677
	O3809	O	0.386965	-0.460732	0.217933
	O3810	O	0.431516	-0.292833	0.189731
	O3811	O	0.429813	-0.211107	0.157539
	O3812	O	0.382677	-0.210712	0.155259
	O3813	O	0.451179	-0.292151	0.187570
	O3814	O	0.449437	-0.210350	0.155364
	O3815	O	0.493936	-0.210025	0.127072
	O3816	O	0.386921	-0.292622	0.217825
	O3817	O	0.429811	-0.042655	0.157381
	O3818	O	0.382671	-0.042407	0.155222
	O3819	O	0.493949	-0.042046	0.127165
	O3820	O	0.449502	-0.042291	0.155466
	O3821	O	0.498303	-0.292184	0.189763
	O3822	O	0.377273	-0.126310	0.222780
	O3823	O	0.503686	-0.376156	0.122408
	C3824	C	0.479389	-0.286615	0.188485
	C3825	C	0.484186	-0.376482	0.188160
	C3826	C	0.479388	-0.466574	0.188257
	C3827	C	0.470059	-0.466481	0.188817
	C3828	C	0.465272	-0.376404	0.189209
	C3829	C	0.470066	-0.286470	0.189044
	C3830	C	0.455163	-0.376277	0.188124
	C3831	C	0.494301	-0.376419	0.189253
	C3832	C	0.427779	-0.376732	0.192339
	C3833	C	0.418301	-0.376420	0.198926
	C3834	C	0.413691	-0.286721	0.201434
	C3835	C	0.404735	-0.286645	0.206189
	C3836	C	0.400114	-0.376402	0.208726
	C3837	C	0.404710	-0.466151	0.206126
	C3838	C	0.413656	-0.466214	0.201351
	C3839	C	0.390661	-0.376578	0.215280
	C3840	C	0.425821	-0.126861	0.156956
	C3841	C	0.415712	-0.126874	0.155840
	C3842	C	0.410929	-0.036904	0.156004
	C3843	C	0.401596	-0.036672	0.156545
	C3844	C	0.396789	-0.126508	0.156853
	C3845	C	0.401564	-0.216433	0.156692
	C3846	C	0.410897	-0.216706	0.156204
	C3847	C	0.386678	-0.126450	0.155701
	C3848	C	0.453150	-0.126387	0.152722
	C3849	C	0.462611	-0.126468	0.146190
	C3850	C	0.467245	-0.216281	0.143709
	C3851	C	0.476189	-0.216002	0.138907
	C3852	C	0.480782	-0.126126	0.136270
	C3853	C	0.476155	-0.036272	0.138795
	C3854	C	0.467205	-0.036482	0.143610
	C3855	C	0.490241	-0.126105	0.129804
	H3856	H	0.479643	-0.286170	0.137087
	H3857	H	0.463797	-0.286540	0.145490
	H3858	H	0.482989	-0.216229	0.188309
	H3859	H	0.466487	-0.216317	0.189297
	H3860	H	0.438784	-0.376530	0.147127
	H3861	H	0.442099	-0.125979	0.197989
	H3862	H	0.376159	-0.126077	0.209618
	H3863	H	0.504819	-0.376613	0.135565
	H3864	H	0.414503	-0.286730	0.156092
	H3865	H	0.397965	-0.286474	0.156958
	H3866	H	0.401313	-0.216425	0.207970
	H3867	H	0.417148	-0.216671	0.199532
	H3868	H	0.397974	0.033403	0.156736
	H3869	H	0.414527	0.033295	0.155784
	H3870	H	0.417048	-0.536580	0.199449
	H3871	H	0.401239	-0.536148	0.207899
	H3872	H	0.466452	-0.536330	0.188945
	H3873	H	0.483002	-0.536438	0.187948
	H3874	H	0.463737	0.033563	0.145375
	H3875	H	0.479595	0.033874	0.136937
	Al3876	Al	0.440425	-0.001647	0.172333
	Al3877	Al	0.440491	0.248411	0.172558
	Al3878	Al	0.372056	0.248540	0.140270
	Al3879	Al	0.372001	-0.001476	0.140186
	O3880	O	0.451107	0.039258	0.187477
	O3881	O	0.439764	0.123411	0.160072
	O3882	O	0.441162	0.373128	0.184995
	O3883	O	0.498218	0.039658	0.189869
	O3884	O	0.431358	0.039237	0.189253
	O3885	O	0.386988	0.039614	0.218189
	O3886	O	0.431398	0.207293	0.189407
	O3887	O	0.429837	0.289725	0.157503
	O3888	O	0.382724	0.289472	0.155230
	O3889	O	0.451100	0.207564	0.187584
	O3890	O	0.449503	0.289585	0.155535
	O3891	O	0.493906	0.289627	0.126931
	O3892	O	0.387007	0.207512	0.218221
	O3893	O	0.429837	0.457942	0.157591
	O3894	O	0.382747	0.457813	0.155173
	O3895	O	0.493949	0.457519	0.126971
	O3896	O	0.449489	0.457558	0.155578
	O3897	O	0.498235	0.207913	0.189770
	O3898	O	0.377267	0.373584	0.222714
	O3899	O	0.503619	0.123594	0.122512
	C3900	C	0.479325	0.214045	0.188509
	C3901	C	0.484126	0.124059	0.188273
	C3902	C	0.479334	0.034003	0.188467
	C3903	C	0.470011	0.033831	0.188936
	C3904	C	0.465206	0.123627	0.189205
	C3905	C	0.469987	0.213768	0.188979
	C3906	C	0.455108	0.123398	0.188066
	C3907	C	0.494243	0.123964	0.189349
	C3908	C	0.427670	0.123325	0.191963
	C3909	C	0.418250	0.123402	0.198680
	C3910	C	0.413670	0.213316	0.201398
	C3911	C	0.404762	0.213318	0.206351
	C3912	C	0.400143	0.123544	0.208929
	C3913	C	0.404731	0.033594	0.206246
	C3914	C	0.413642	0.033688	0.201301
	C3915	C	0.390700	0.123461	0.215514
	C3916	C	0.425838	0.373791	0.156911
	C3917	C	0.415733	0.373789	0.155803
	C3918	C	0.410931	0.463805	0.156050
	C3919	C	0.401608	0.463668	0.156595
	C3920	C	0.396824	0.373549	0.156754
	C3921	C	0.401628	0.283573	0.156504
	C3922	C	0.410947	0.283775	0.155938
	C3923	C	0.386727	0.373544	0.155779
	C3924	C	0.453196	0.373604	0.152907
	C3925	C	0.462647	0.373741	0.146243
	C3926	C	0.467263	0.284095	0.143767
	C3927	C	0.476193	0.284041	0.138873
	C3928	C	0.480785	0.373798	0.136299
	C3929	C	0.476166	0.463521	0.138744
	C3930	C	0.467228	0.463508	0.143627
	C3931	C	0.490220	0.373713	0.129571
	H3932	H	0.479648	0.213914	0.137066
	H3933	H	0.463842	0.213716	0.145743
	H3934	H	0.482925	0.284057	0.188194
	H3935	H	0.466370	0.283937	0.189127
	H3936	H	0.438811	0.124227	0.146926
	H3937	H	0.442005	0.372760	0.198177
	H3938	H	0.376289	0.373482	0.209513
	H3939	H	0.504328	0.124339	0.135653
	H3940	H	0.414538	0.213689	0.155659
	H3941	H	0.398025	0.213361	0.156812
	H3942	H	0.401323	0.283308	0.208407
	H3943	H	0.417118	0.283691	0.199739
	H3944	H	0.397995	0.533678	0.156873
	H3945	H	0.414559	0.533506	0.155831
	H3946	H	0.417137	-0.036317	0.199489
	H3947	H	0.401321	-0.036655	0.208189
	H3948	H	0.466427	-0.036244	0.189037
	H3949	H	0.482943	-0.036145	0.188165
	H3950	H	0.463821	0.533751	0.145570
	H3951	H	0.479581	0.533848	0.136926
	Al3952	Al	0.446384	-0.500963	0.267457
	Al3953	Al	0.446415	-0.251271	0.267530
	Al3954	Al	0.377935	-0.251694	0.234943
	Al3955	Al	0.377928	-0.501272	0.234983
	O3956	O	0.457032	-0.460388	0.282571
	O3957	O	0.445732	-0.376073	0.255096
	O3958	O	0.447077	-0.125995	0.279770
	O3959	O	0.504123	-0.459354	0.284899
	O3960	O	0.437417	-0.460038	0.284562
	O3961	O	0.392950	-0.460419	0.312870
	O3962	O	0.437338	-0.291855	0.284377
	O3963	O	0.435753	-0.210499	0.252338
	O3964	O	0.388642	-0.211578	0.249938
	O3965	O	0.456998	-0.292218	0.282826
	O3966	O	0.455550	-0.210492	0.250760
	O3967	O	0.499876	-0.210250	0.221860
	O3968	O	0.392896	-0.292509	0.312823
	O3969	O	0.435763	-0.042151	0.252368
	O3970	O	0.388633	-0.043264	0.250272
	O3971	O	0.499884	-0.042225	0.221902
	O3972	O	0.455426	-0.042400	0.250402
	O3973	O	0.504128	-0.290689	0.285045
	O3974	O	0.383247	-0.126292	0.317586
	O3975	O	0.509578	-0.376026	0.217224
	C3976	C	0.485250	-0.285500	0.283784
	C3977	C	0.490035	-0.375307	0.283511
	C3978	C	0.485281	-0.465335	0.283884
	C3979	C	0.475950	-0.465498	0.284339
	C3980	C	0.471141	-0.375745	0.284417
	C3981	C	0.475910	-0.285689	0.284205
	C3982	C	0.461008	-0.376179	0.283265
	C3983	C	0.500145	-0.375000	0.284456
	C3984	C	0.433674	-0.376081	0.287150
	C3985	C	0.424268	-0.376106	0.293857
	C3986	C	0.419656	-0.286315	0.296444
	C3987	C	0.410720	-0.286365	0.301270
	C3988	C	0.406104	-0.376250	0.303770
	C3989	C	0.410702	-0.466044	0.301135
	C3990	C	0.419628	-0.465916	0.296311
	C3991	C	0.396641	-0.376274	0.310249
	C3992	C	0.431758	-0.126286	0.251784
	C3993	C	0.421646	-0.126159	0.250702
	C3994	C	0.416827	-0.036514	0.250950
	C3995	C	0.407509	-0.036835	0.251500
	C3996	C	0.402741	-0.127092	0.251687
	C3997	C	0.407568	-0.216906	0.251457
	C3998	C	0.416893	-0.216609	0.250922
	C3999	C	0.392621	-0.127392	0.250587
	C4000	C	0.459190	-0.126272	0.247895
	C4001	C	0.468629	-0.126301	0.241310
	C4002	C	0.473232	-0.216157	0.238732
	C4003	C	0.482152	-0.216064	0.233859
	C4004	C	0.486749	-0.126274	0.231238
	C4005	C	0.482141	-0.036453	0.233773
	C4006	C	0.473216	-0.036615	0.238665
	C4007	C	0.496182	-0.126215	0.224567
	H4008	H	0.485591	-0.286052	0.231953
	H4009	H	0.469786	-0.286442	0.240562
	H4010	H	0.488825	-0.215439	0.283606
	H4011	H	0.472272	-0.215858	0.284431
	H4012	H	0.444699	-0.376119	0.241939
	H4013	H	0.448066	-0.125775	0.292902
	H4014	H	0.382211	-0.125871	0.304434
	H4015	H	0.510349	-0.376252	0.230468
	H4016	H	0.420522	-0.286417	0.250772
	H4017	H	0.403972	-0.286974	0.251769
	H4018	H	0.407284	-0.216207	0.303233
	H4019	H	0.423090	-0.216093	0.294681
	H4020	H	0.403907	0.033197	0.251801
	H4021	H	0.420423	0.033769	0.250796
	H4022	H	0.423077	-0.535985	0.294444
	H4023	H	0.407262	-0.536311	0.302934
	H4024	H	0.472412	-0.535581	0.284613
	H4025	H	0.488912	-0.535401	0.283755
	H4026	H	0.469742	0.033553	0.240496
	H4027	H	0.485543	0.033992	0.231839
	Al4028	Al	0.446405	-0.001195	0.267403
	Al4029	Al	0.446412	0.249094	0.267403
	Al4030	Al	0.377972	0.248830	0.235098
	Al4031	Al	0.377982	-0.001601	0.235195
	O4032	O	0.457035	0.039554	0.282561
	O4033	O	0.445725	0.123927	0.255064
	O4034	O	0.447094	0.373984	0.279818
	O4035	O	0.504132	0.040612	0.284905
	O4036	O	0.437372	0.040225	0.284440
	O4037	O	0.392932	0.039972	0.312989
	O4038	O	0.437294	0.208167	0.284130
	O4039	O	0.435784	0.290402	0.252143
	O4040	O	0.388625	0.289999	0.250144
	O4041	O	0.456981	0.207650	0.282684
	O4042	O	0.455458	0.289734	0.250584
	O4043	O	0.499874	0.290578	0.221944
	O4044	O	0.392944	0.208365	0.313037
	O4045	O	0.435761	0.458467	0.252490
	O4046	O	0.388614	0.458316	0.250148
	O4047	O	0.499846	0.458544	0.221873
	O4048	O	0.455417	0.457558	0.250415
	O4049	O	0.504076	0.208933	0.285140
	O4050	O	0.383201	0.373689	0.317480
	O4051	O	0.509471	0.124337	0.217185
	C4052	C	0.485211	0.214544	0.283855
	C4053	C	0.489998	0.124714	0.283487
	C4054	C	0.485223	0.034632	0.283746
	C4055	C	0.475910	0.034403	0.284295
	C4056	C	0.471100	0.124202	0.284445
	C4057	C	0.475887	0.214253	0.284378
	C4058	C	0.460990	0.123761	0.283227
	C4059	C	0.500117	0.124641	0.284483
	C4060	C	0.433632	0.124165	0.286975
	C4061	C	0.424173	0.124203	0.293664
	C4062	C	0.419575	0.213919	0.296264
	C4063	C	0.410662	0.213944	0.301154
	C4064	C	0.406081	0.124186	0.303766
	C4065	C	0.410680	0.034597	0.301085
	C4066	C	0.419588	0.034507	0.296183
	C4067	C	0.396646	0.124011	0.310323
	C4068	C	0.431771	0.374312	0.251812
	C4069	C	0.421651	0.374028	0.250832
	C4070	C	0.416863	0.464149	0.250981
	C4071	C	0.407518	0.464208	0.251513
	C4072	C	0.402727	0.374272	0.251759
	C4073	C	0.407513	0.284187	0.251572
	C4074	C	0.416849	0.284059	0.251032
	C4075	C	0.392607	0.374196	0.250709
	C4076	C	0.459130	0.373799	0.247842
	C4077	C	0.468612	0.373702	0.241285
	C4078	C	0.473220	0.283967	0.238766
	C4079	C	0.482163	0.284088	0.233912
	C4080	C	0.486716	0.374129	0.231214
	C4081	C	0.482108	0.463738	0.233733
	C4082	C	0.473167	0.463611	0.238578
	C4083	C	0.496182	0.374439	0.224650
	H4084	H	0.485608	0.213913	0.232138
	H4085	H	0.469797	0.213718	0.240558
	H4086	H	0.488809	0.284517	0.283674
	H4087	H	0.472282	0.284268	0.284600
	H4088	H	0.444682	0.124513	0.241918
	H4089	H	0.448078	0.374192	0.292963
	H4090	H	0.382217	0.373958	0.304301
	H4091	H	0.510214	0.124180	0.230430
	H4092	H	0.420453	0.214020	0.250826
	H4093	H	0.403943	0.213703	0.251859
	H4094	H	0.407259	0.283896	0.303141
	H4095	H	0.423043	0.283876	0.294456
	H4096	H	0.403901	0.534188	0.251761
	H4097	H	0.420461	0.534399	0.250721
	H4098	H	0.423009	-0.035757	0.294369
	H4099	H	0.407268	-0.035546	0.302996
	H4100	H	0.472297	-0.035635	0.284437
	H4101	H	0.488839	-0.035039	0.283489
	H4102	H	0.469713	0.533794	0.240216
	H4103	H	0.485502	0.533900	0.231772
	Al4104	Al	0.451821	-0.499895	0.363956
	Al4105	Al	0.451840	-0.251054	0.363929
	Al4106	Al	0.383882	-0.251447	0.329792
	Al4107	Al	0.383917	-0.501120	0.329822
	O4108	O	0.461074	-0.458963	0.382787
	O4109	O	0.451591	-0.375604	0.351655
	O4110	O	0.451799	-0.125179	0.376122
	O4111	O	0.497861	-0.459226	0.451280
	O4112	O	0.442363	-0.459914	0.379707
	O4113	O	0.398791	-0.459660	0.411165
	O4114	O	0.442426	-0.291407	0.379929
	O4115	O	0.441642	-0.209491	0.347271
	O4116	O	0.394526	-0.210017	0.344908
	O4117	O	0.461152	-0.291229	0.382682
	O4118	O	0.461282	-0.209429	0.348633
	O4119	O	0.504945	-0.209323	0.317635
	O4120	O	0.398827	-0.291232	0.411337
	O4121	O	0.441604	-0.041044	0.347259
	O4122	O	0.394550	-0.041649	0.345142
	O4123	O	0.504946	-0.041031	0.317574
	O4124	O	0.461205	-0.041231	0.348393
	O4125	O	0.497860	-0.291127	0.451284
	O4126	O	0.389046	-0.125622	0.414304
	O4127	O	0.514350	-0.375471	0.313829
	C4128	C	0.483315	-0.286139	0.423493
	C4129	C	0.487053	-0.375122	0.430433
	C4130	C	0.483287	-0.463683	0.423411
	C4131	C	0.476008	-0.463556	0.409747
	C4132	C	0.472233	-0.374755	0.402851
	C4133	C	0.476015	-0.285894	0.409826
	C4134	C	0.464277	-0.375087	0.388305
	C4135	C	0.494785	-0.375228	0.445487
	C4136	C	0.438790	-0.375513	0.382729
	C4137	C	0.429533	-0.375608	0.390042
	C4138	C	0.425034	-0.285706	0.392949
	C4139	C	0.416273	-0.285722	0.398744
	C4140	C	0.411794	-0.375515	0.401705
	C4141	C	0.416298	-0.465478	0.398968
	C4142	C	0.425059	-0.465505	0.393186
	C4143	C	0.402475	-0.375512	0.408615
	C4144	C	0.437643	-0.125432	0.346737
	C4145	C	0.427518	-0.125779	0.345776
	C4146	C	0.422752	-0.035824	0.346154
	C4147	C	0.413431	-0.035940	0.346645
	C4148	C	0.408637	-0.125982	0.346706
	C4149	C	0.413407	-0.215896	0.346421
	C4150	C	0.422732	-0.215812	0.345945
	C4151	C	0.398512	-0.125911	0.345584
	C4152	C	0.464926	-0.125207	0.345933
	C4153	C	0.474292	-0.124815	0.339264
	C4154	C	0.478790	-0.214453	0.336462
	C4155	C	0.487565	-0.214803	0.330790
	C4156	C	0.492066	-0.125109	0.327780
	C4157	C	0.487586	-0.035368	0.330730
	C4158	C	0.478803	-0.035120	0.336370
	C4159	C	0.501334	-0.125269	0.320513
	H4160	H	0.490923	-0.284726	0.328545
	H4161	H	0.475356	-0.284111	0.338727
	H4162	H	0.486085	-0.217427	0.428938
	H4163	H	0.473215	-0.217271	0.404533
	H4164	H	0.450986	-0.375560	0.338485
	H4165	H	0.451637	-0.124972	0.389315
	H4166	H	0.388261	-0.126073	0.401116
	H4167	H	0.514042	-0.375423	0.327048
	H4168	H	0.426324	-0.285867	0.345666
	H4169	H	0.409832	-0.285951	0.346593
	H4170	H	0.412851	-0.216193	0.400980
	H4171	H	0.428383	-0.215805	0.390589
	H4172	H	0.409817	0.033872	0.346994
	H4173	H	0.426330	0.034257	0.346063
	H4174	H	0.428439	-0.535320	0.390979
	H4175	H	0.412927	-0.535189	0.401340
	H4176	H	0.473169	-0.532496	0.404480
	H4177	H	0.486061	-0.532722	0.428770
	H4178	H	0.475406	0.034624	0.338508
	H4179	H	0.490995	0.034149	0.328410
	Al4180	Al	0.451839	0.000066	0.363895
	Al4181	Al	0.451811	0.249163	0.363984
	Al4182	Al	0.383884	0.248634	0.329953
	Al4183	Al	0.383910	-0.001065	0.329944
	O4184	O	0.461198	0.040425	0.382559
	O4185	O	0.451552	0.124767	0.351705
	O4186	O	0.451796	0.374678	0.376180
	O4187	O	0.497838	0.041191	0.451303
	O4188	O	0.442390	0.040324	0.379805
	O4189	O	0.398789	0.040466	0.411152
	O4190	O	0.442376	0.208543	0.379889
	O4191	O	0.441609	0.290085	0.347328
	O4192	O	0.394489	0.289901	0.345156
	O4193	O	0.461079	0.208464	0.382779
	O4194	O	0.461320	0.290064	0.348658
	O4195	O	0.504939	0.290859	0.317581
	O4196	O	0.398779	0.208845	0.411044
	O4197	O	0.441638	0.458461	0.347175
	O4198	O	0.394526	0.458335	0.344923
	O4199	O	0.504918	0.459286	0.317499
	O4200	O	0.461318	0.458558	0.348731
	O4201	O	0.497805	0.209272	0.451324
	O4202	O	0.389043	0.374539	0.414271
	O4203	O	0.514406	0.124631	0.313877
	C4204	C	0.483293	0.213767	0.423372
	C4205	C	0.487010	0.125021	0.430462
	C4206	C	0.483270	0.035948	0.423495
	C4207	C	0.475994	0.035719	0.409812
	C4208	C	0.472251	0.124510	0.402805
	C4209	C	0.476026	0.213474	0.409706
	C4210	C	0.464328	0.124605	0.388169
	C4211	C	0.494766	0.125174	0.445493
	C4212	C	0.438779	0.124194	0.382738
	C4213	C	0.429523	0.124259	0.390062
	C4214	C	0.425043	0.214039	0.393025
	C4215	C	0.416280	0.213803	0.398758
	C4216	C	0.411795	0.124189	0.401734
	C4217	C	0.416299	0.034429	0.398971
	C4218	C	0.425066	0.034582	0.393198
	C4219	C	0.402449	0.124592	0.408491
	C4220	C	0.437626	0.374374	0.346760
	C4221	C	0.427507	0.374195	0.345799
	C4222	C	0.422725	0.463970	0.346153
	C4223	C	0.413413	0.463893	0.346661
	C4224	C	0.408608	0.373953	0.346831
	C4225	C	0.413403	0.284055	0.346685
	C4226	C	0.422717	0.284228	0.346168
	C4227	C	0.398493	0.373962	0.345592
	C4228	C	0.464962	0.374482	0.346114
	C4229	C	0.474322	0.374552	0.339309
	C4230	C	0.478796	0.284832	0.336411
	C4231	C	0.487558	0.285070	0.330642
	C4232	C	0.492036	0.374839	0.327672
	C4233	C	0.487562	0.464677	0.330639
	C4234	C	0.478796	0.464367	0.336419
	C4235	C	0.501308	0.375048	0.320394
	H4236	H	0.490955	0.215318	0.328412
	H4237	H	0.475442	0.215014	0.338676
	H4238	H	0.486124	0.282730	0.428615
	H4239	H	0.473251	0.282100	0.404263
	H4240	H	0.450836	0.125067	0.338452
	H4241	H	0.451646	0.374507	0.389415
	H4242	H	0.388205	0.374033	0.401111
	H4243	H	0.514475	0.124642	0.327155
	H4244	H	0.426329	0.214443	0.345967
	H4245	H	0.409806	0.214151	0.346909
	H4246	H	0.412893	0.283456	0.400972
	H4247	H	0.428400	0.283654	0.390637
	H4248	H	0.409807	0.533833	0.346869
	H4249	H	0.426339	0.534005	0.345986
	H4250	H	0.428444	-0.035134	0.390936
	H4251	H	0.412909	-0.035158	0.401380
	H4252	H	0.473177	-0.033043	0.404457
	H4253	H	0.486112	-0.032877	0.428893
	H4254	H	0.475384	0.534059	0.338696
	H4255	H	0.490922	0.534643	0.328397
	Al4256	Al	0.443705	-0.499791	0.534642
	Al4257	Al	0.443725	-0.249991	0.534667
	Al4258	Al	0.389378	-0.249810	0.426598
	Al4259	Al	0.389355	-0.500701	0.426494
	O4260	O	0.451914	-0.459178	0.555790
	O4261	O	0.444381	-0.375129	0.522801
	O4262	O	0.443020	-0.124849	0.546481
	O4263	O	0.485602	-0.459045	0.631167
	O4264	O	0.433613	-0.459305	0.548086
	O4265	O	0.391258	-0.459488	0.583731
	O4266	O	0.433603	-0.290767	0.548008
	O4267	O	0.435417	-0.209403	0.513700
	O4268	O	0.398641	-0.209394	0.445381
	O4269	O	0.451883	-0.291105	0.555833
	O4270	O	0.453791	-0.209659	0.521314
	O4271	O	0.496110	-0.209227	0.485457
	O4272	O	0.391274	-0.291255	0.583837
	O4273	O	0.435365	-0.041300	0.513803
	O4274	O	0.398664	-0.041666	0.445285
	O4275	O	0.496121	-0.040815	0.485557
	O4276	O	0.453821	-0.041287	0.521409
	O4277	O	0.485593	-0.290693	0.631260
	O4278	O	0.381834	-0.125641	0.585344
	O4279	O	0.505542	-0.375253	0.484103
	C4280	C	0.472041	-0.285855	0.601143
	C4281	C	0.475524	-0.374933	0.608770
	C4282	C	0.472111	-0.464092	0.600993
	C4283	C	0.465423	-0.464031	0.585978
	C4284	C	0.461925	-0.374905	0.578385
	C4285	C	0.465356	-0.285853	0.586131
	C4286	C	0.454767	-0.374987	0.562055
	C4287	C	0.482727	-0.374679	0.624996
	C4288	C	0.430071	-0.374971	0.551018
	C4289	C	0.420983	-0.374874	0.558774
	C4290	C	0.416676	-0.285637	0.562304
	C4291	C	0.408179	-0.285716	0.569350
	C4292	C	0.403880	-0.375196	0.572939
	C4293	C	0.408186	-0.464531	0.569417
	C4294	C	0.416683	-0.464357	0.562349
	C4295	C	0.394818	-0.375225	0.580809
	C4296	C	0.432337	-0.125303	0.507932
	C4297	C	0.424561	-0.125523	0.492998
	C4298	C	0.420813	-0.036709	0.486044
	C4299	C	0.413505	-0.036754	0.472430
	C4300	C	0.409774	-0.125663	0.465404
	C4301	C	0.413511	-0.214559	0.472344
	C4302	C	0.420820	-0.214468	0.485949
	C4303	C	0.401794	-0.125725	0.450941
	C4304	C	0.457348	-0.125449	0.518357
	C4305	C	0.466412	-0.125430	0.510504
	C4306	C	0.470696	-0.214790	0.506806
	C4307	C	0.479168	-0.214654	0.499678
	C4308	C	0.483487	-0.125223	0.496230
	C4309	C	0.479202	-0.035842	0.499879
	C4310	C	0.470724	-0.035961	0.507011
	C4311	C	0.492543	-0.125077	0.488380
	H4312	H	0.482406	-0.283683	0.496645
	H4313	H	0.467376	-0.283576	0.509535
	H4314	H	0.474603	-0.216736	0.607043
	H4315	H	0.462787	-0.216735	0.580272
	H4316	H	0.445003	-0.374413	0.509744
	H4317	H	0.442241	-0.125012	0.559515
	H4318	H	0.382454	-0.126141	0.572398
	H4319	H	0.504784	-0.375272	0.497078
	H4320	H	0.423633	-0.283496	0.491244
	H4321	H	0.410657	-0.283247	0.467116
	H4322	H	0.404869	-0.216708	0.572167
	H4323	H	0.419985	-0.216774	0.559542
	H4324	H	0.410612	0.032174	0.467229
	H4325	H	0.423625	0.032284	0.491396
	H4326	H	0.420000	-0.533366	0.559609
	H4327	H	0.404859	-0.533478	0.572230
	H4328	H	0.462925	-0.533179	0.579959
	H4329	H	0.474744	-0.532988	0.606721
	H4330	H	0.467431	0.032925	0.509831
	H4331	H	0.482488	0.033044	0.496963
	Al4332	Al	0.443741	0.000325	0.534710
	Al4333	Al	0.443737	0.250157	0.534680
	Al4334	Al	0.389365	0.249950	0.426502
	Al4335	Al	0.389350	-0.001160	0.426538
	O4336	O	0.451868	0.040697	0.555831
	O4337	O	0.444410	0.124995	0.522868
	O4338	O	0.442978	0.375035	0.546617
	O4339	O	0.485613	0.040815	0.631180
	O4340	O	0.433612	0.040610	0.548059
	O4341	O	0.391312	0.039891	0.583782
	O4342	O	0.433615	0.209114	0.548030
	O4343	O	0.435365	0.290581	0.513808
	O4344	O	0.398638	0.290680	0.445276
	O4345	O	0.451894	0.208867	0.555818
	O4346	O	0.453767	0.291064	0.521255
	O4347	O	0.496140	0.290522	0.485471
	O4348	O	0.391239	0.208382	0.583679
	O4349	O	0.435316	0.458790	0.513795
	O4350	O	0.398686	0.458681	0.445247
	O4351	O	0.496170	0.458857	0.485599
	O4352	O	0.453765	0.459210	0.521300
	O4353	O	0.485615	0.209012	0.631112
	O4354	O	0.381889	0.374749	0.585264
	O4355	O	0.505510	0.124837	0.484012
	C4356	C	0.472070	0.214069	0.601027
	C4357	C	0.475527	0.124887	0.608673
	C4358	C	0.472070	0.035587	0.601035
	C4359	C	0.465363	0.035457	0.586051
	C4360	C	0.461928	0.124671	0.578351
	C4361	C	0.465361	0.213913	0.586025
	C4362	C	0.454743	0.124907	0.562046
	C4363	C	0.482755	0.125018	0.624900
	C4364	C	0.430074	0.124808	0.551006
	C4365	C	0.420962	0.124905	0.558681
	C4366	C	0.416669	0.214208	0.562237
	C4367	C	0.408169	0.213969	0.569272
	C4368	C	0.403880	0.124644	0.572862
	C4369	C	0.408181	0.035396	0.569315
	C4370	C	0.416663	0.035629	0.562224
	C4371	C	0.394810	0.124335	0.580760
	C4372	C	0.432306	0.374714	0.507985
	C4373	C	0.424524	0.374452	0.492997
	C4374	C	0.420805	0.463498	0.486002
	C4375	C	0.413497	0.463716	0.472377
	C4376	C	0.409757	0.374557	0.465405
	C4377	C	0.413507	0.285623	0.472290
	C4378	C	0.420815	0.285436	0.485908
	C4379	C	0.401800	0.374839	0.450913
	C4380	C	0.457310	0.375017	0.518291
	C4381	C	0.466377	0.374941	0.510393
	C4382	C	0.470688	0.285773	0.506848
	C4383	C	0.479175	0.285771	0.499771
	C4384	C	0.483482	0.374874	0.496179
	C4385	C	0.479175	0.464025	0.499766
	C4386	C	0.470701	0.463935	0.506873
	C4387	C	0.492582	0.374811	0.488383
	H4388	H	0.482499	0.217037	0.496931
	H4389	H	0.467382	0.217161	0.509674
	H4390	H	0.474663	0.283381	0.606854
	H4391	H	0.462772	0.283170	0.580110
	H4392	H	0.445059	0.125410	0.509824
	H4393	H	0.441984	0.375044	0.559501
	H4394	H	0.382373	0.374259	0.572137
	H4395	H	0.504590	0.125075	0.496950
	H4396	H	0.423643	0.216226	0.491214
	H4397	H	0.410695	0.216522	0.466965
	H4398	H	0.404855	0.282714	0.572148
	H4399	H	0.419996	0.283144	0.559538
	H4400	H	0.410656	0.532504	0.467102
	H4401	H	0.423610	0.532443	0.491378
	H4402	H	0.419979	-0.033386	0.559526
	H4403	H	0.404929	-0.033357	0.572211
	H4404	H	0.462802	-0.033529	0.580232
	H4405	H	0.474667	-0.033555	0.606836
	H4406	H	0.467408	0.532424	0.509736
	H4407	H	0.482473	0.532723	0.497013
	Al4408	Al	0.431277	-0.500020	0.714848
	Al4409	Al	0.431330	-0.249920	0.714907
	Al4410	Al	0.381198	-0.250630	0.597130
	Al4411	Al	0.381170	-0.500246	0.597196
	O4412	O	0.439648	-0.459200	0.735678
	O4413	O	0.431990	-0.375036	0.702985
	O4414	O	0.430637	-0.125114	0.726751
	O4415	O	0.476338	-0.458816	0.804356
	O4416	O	0.421226	-0.459264	0.728324
	O4417	O	0.378919	-0.459360	0.764315
	O4418	O	0.421266	-0.290890	0.728297
	O4419	O	0.423120	-0.208993	0.693775
	O4420	O	0.389338	-0.209419	0.618364
	O4421	O	0.439715	-0.291181	0.735633
	O4422	O	0.441356	-0.208566	0.701371
	O4423	O	0.483731	-0.208913	0.665773
	O4424	O	0.378949	-0.291050	0.764393
	O4425	O	0.423086	-0.041068	0.693657
	O4426	O	0.389377	-0.041474	0.618418
	O4427	O	0.483750	-0.040531	0.665818
	O4428	O	0.441371	-0.040145	0.701532
	O4429	O	0.476319	-0.290994	0.804378
	O4430	O	0.369504	-0.125023	0.765856
	O4431	O	0.493095	-0.374910	0.664265
	C4432	C	0.461508	-0.285899	0.777172
	C4433	C	0.465239	-0.374872	0.784201
	C4434	C	0.461469	-0.463919	0.777291
	C4435	C	0.454189	-0.464076	0.763614
	C4436	C	0.450472	-0.375190	0.756531
	C4437	C	0.454220	-0.286034	0.763469
	C4438	C	0.442706	-0.375079	0.741496
	C4439	C	0.473172	-0.375034	0.798802
	C4440	C	0.417686	-0.374950	0.731228
	C4441	C	0.408643	-0.375084	0.739152
	C4442	C	0.404363	-0.286034	0.742815
	C4443	C	0.395895	-0.285840	0.749995
	C4444	C	0.391572	-0.375132	0.753561
	C4445	C	0.395852	-0.464345	0.749912
	C4446	C	0.404323	-0.464350	0.742738
	C4447	C	0.382484	-0.375238	0.761350
	C4448	C	0.420273	-0.125060	0.687418
	C4449	C	0.413078	-0.125145	0.671161
	C4450	C	0.409589	-0.036136	0.663536
	C4451	C	0.402893	-0.036300	0.648523
	C4452	C	0.399487	-0.125420	0.640782
	C4453	C	0.402956	-0.214349	0.648433
	C4454	C	0.409674	-0.214268	0.663423
	C4455	C	0.392249	-0.125481	0.624617
	C4456	C	0.444932	-0.124569	0.698588
	C4457	C	0.453993	-0.124673	0.690726
	C4458	C	0.458273	-0.213981	0.687062
	C4459	C	0.466773	-0.214051	0.680023
	C4460	C	0.471125	-0.124727	0.676632
	C4461	C	0.466845	-0.035396	0.680290
	C4462	C	0.458343	-0.035525	0.687333
	C4463	C	0.480187	-0.124732	0.668749
	H4464	H	0.470032	-0.282629	0.677083
	H4465	H	0.454957	-0.282747	0.689887
	H4466	H	0.464314	-0.216918	0.782472
	H4467	H	0.451410	-0.216911	0.758089
	H4468	H	0.432702	-0.374101	0.689968
	H4469	H	0.429956	-0.124342	0.739734
	H4470	H	0.370101	-0.125038	0.752866
	H4471	H	0.492482	-0.375224	0.677353
	H4472	H	0.412299	-0.283341	0.669241
	H4473	H	0.400413	-0.283424	0.642547
	H4474	H	0.392567	-0.216551	0.752743
	H4475	H	0.407667	-0.217345	0.739883
	H4476	H	0.400302	0.032887	0.642755
	H4477	H	0.412135	0.033093	0.669425
	H4478	H	0.407602	-0.533121	0.739799
	H4479	H	0.392509	-0.533147	0.752557
	H4480	H	0.451359	-0.533089	0.758357
	H4481	H	0.464271	-0.532915	0.782654
	H4482	H	0.455067	0.033263	0.690352
	H4483	H	0.470170	0.033254	0.677572
	Al4484	Al	0.431278	0.000168	0.714881
	Al4485	Al	0.431266	0.250161	0.714904
	Al4486	Al	0.381212	0.249725	0.597128
	Al4487	Al	0.381200	-0.000679	0.597158
	O4488	O	0.439585	0.040922	0.735791
	O4489	O	0.431878	0.125038	0.703028
	O4490	O	0.430667	0.375142	0.726810
	O4491	O	0.476366	0.041030	0.804180
	O4492	O	0.421203	0.040904	0.728348
	O4493	O	0.378893	0.040910	0.764286
	O4494	O	0.421214	0.209373	0.728287
	O4495	O	0.423081	0.291238	0.693741
	O4496	O	0.389354	0.290461	0.618382
	O4497	O	0.439613	0.209268	0.735780
	O4498	O	0.441348	0.290582	0.701452
	O4499	O	0.483722	0.290906	0.665775
	O4500	O	0.378946	0.209265	0.764424
	O4501	O	0.423099	0.459265	0.693712
	O4502	O	0.389345	0.458388	0.618353
	O4503	O	0.483727	0.459269	0.665881
	O4504	O	0.441334	0.458879	0.701368
	O4505	O	0.476359	0.209192	0.804167
	O4506	O	0.369488	0.374930	0.765819
	O4507	O	0.493117	0.125273	0.664176
	C4508	C	0.461487	0.213881	0.777143
	C4509	C	0.465245	0.124877	0.784121
	C4510	C	0.461480	0.035672	0.777251
	C4511	C	0.454175	0.035639	0.763612
	C4512	C	0.450438	0.124803	0.756568
	C4513	C	0.454184	0.213919	0.763509
	C4514	C	0.442667	0.124933	0.741556
	C4515	C	0.473194	0.124964	0.798594
	C4516	C	0.417666	0.125162	0.731325
	C4517	C	0.408597	0.124862	0.739236
	C4518	C	0.404333	0.214202	0.742978
	C4519	C	0.395860	0.214146	0.750095
	C4520	C	0.391524	0.124856	0.753538
	C4521	C	0.395795	0.035410	0.749862
	C4522	C	0.404275	0.035439	0.742752
	C4523	C	0.382452	0.125059	0.761360
	C4524	C	0.420224	0.375195	0.687454
	C4525	C	0.413035	0.375121	0.671175
	C4526	C	0.409579	0.463904	0.663466
	C4527	C	0.402875	0.463750	0.648478
	C4528	C	0.399452	0.374833	0.640801
	C4529	C	0.402944	0.286011	0.648459
	C4530	C	0.409623	0.286238	0.663466
	C4531	C	0.392213	0.374583	0.624598
	C4532	C	0.444912	0.374683	0.698532
	C4533	C	0.453985	0.374576	0.690751
	C4534	C	0.458293	0.285319	0.687150
	C4535	C	0.466780	0.285567	0.680044
	C4536	C	0.471109	0.374893	0.676635
	C4537	C	0.466812	0.463945	0.680355
	C4538	C	0.458345	0.463740	0.687442
	C4539	C	0.480152	0.375075	0.668738
	H4540	H	0.470067	0.216866	0.677100
	H4541	H	0.454953	0.216615	0.689875
	H4542	H	0.464311	0.283054	0.782420
	H4543	H	0.451358	0.282930	0.758180
	H4544	H	0.432471	0.125202	0.689967
	H4545	H	0.430052	0.375312	0.739843
	H4546	H	0.370088	0.374561	0.752798
	H4547	H	0.492424	0.125092	0.677170
	H4548	H	0.412252	0.217395	0.669315
	H4549	H	0.400372	0.216905	0.642626
	H4550	H	0.392574	0.283055	0.753040
	H4551	H	0.407631	0.283397	0.740181
	H4552	H	0.400246	0.532422	0.642649
	H4553	H	0.412165	0.532995	0.669286
	H4554	H	0.407562	-0.033471	0.739788
	H4555	H	0.392482	-0.033448	0.752698
	H4556	H	0.451343	-0.033541	0.758362
	H4557	H	0.464296	-0.033350	0.782610
	H4558	H	0.455054	0.532678	0.690319
	H4559	H	0.470121	0.532834	0.677685
	Al4560	Al	0.423162	-0.499940	0.885953
	Al4561	Al	0.423169	-0.248976	0.885975
	Al4562	Al	0.368858	-0.250025	0.777673
	Al4563	Al	0.368836	-0.500162	0.777736
	O4564	O	0.433352	-0.458533	0.902617
	O4565	O	0.423193	-0.374538	0.873651
	O4566	O	0.423420	-0.124769	0.898181
	O4567	O	0.480503	-0.459731	0.905300
	O4568	O	0.413671	-0.458931	0.901281
	O4569	O	0.370046	-0.458984	0.932273
	O4570	O	0.413701	-0.290619	0.901209
	O4571	O	0.413860	-0.208483	0.867206
	O4572	O	0.377119	-0.209130	0.798773
	O4573	O	0.433389	-0.289924	0.902640
	O4574	O	0.432607	-0.208920	0.870109
	O4575	O	0.476192	-0.208550	0.838609
	O4576	O	0.369989	-0.290502	0.932213
	O4577	O	0.413876	-0.040616	0.867264
	O4578	O	0.377221	-0.041167	0.798550
	O4579	O	0.476168	-0.040364	0.838431
	O4580	O	0.432613	-0.040686	0.870034
	O4581	O	0.480521	-0.291605	0.905267
	O4582	O	0.360606	-0.124418	0.935855
	O4583	O	0.485899	-0.374662	0.835376
	C4584	C	0.461625	-0.285319	0.903341
	C4585	C	0.466387	-0.375328	0.903259
	C4586	C	0.461568	-0.464909	0.903542
	C4587	C	0.452240	-0.464632	0.904041
	C4588	C	0.447473	-0.374604	0.904187
	C4589	C	0.452295	-0.284966	0.903849
	C4590	C	0.437357	-0.374336	0.903161
	C4591	C	0.476509	-0.375585	0.904604
	C4592	C	0.409988	-0.374671	0.903768
	C4593	C	0.400658	-0.374644	0.910593
	C4594	C	0.396149	-0.284761	0.913397
	C4595	C	0.387388	-0.284540	0.919186
	C4596	C	0.382919	-0.374382	0.922212
	C4597	C	0.387404	-0.464204	0.919227
	C4598	C	0.396172	-0.464424	0.913477
	C4599	C	0.373641	-0.374634	0.929403
	C4600	C	0.410738	-0.124212	0.861612
	C4601	C	0.402794	-0.124460	0.847071
	C4602	C	0.399111	-0.035381	0.839907
	C4603	C	0.391824	-0.035464	0.826269
	C4604	C	0.388003	-0.124711	0.819456
	C4605	C	0.391647	-0.213558	0.826737
	C4606	C	0.398930	-0.213465	0.840351
	C4607	C	0.380247	-0.125018	0.804421
	C4608	C	0.436240	-0.124823	0.867196
	C4609	C	0.445490	-0.124930	0.859890
	C4610	C	0.449954	-0.214744	0.856771
	C4611	C	0.458707	-0.214762	0.850912
	C4612	C	0.463193	-0.124721	0.848059
	C4613	C	0.458706	-0.035113	0.851053
	C4614	C	0.449958	-0.035020	0.856888
	C4615	C	0.472504	-0.124459	0.841147
	H4616	H	0.462103	-0.284328	0.848496
	H4617	H	0.446566	-0.284519	0.859015
	H4618	H	0.465264	-0.215375	0.903104
	H4619	H	0.448715	-0.214934	0.903985
	H4620	H	0.423495	-0.374152	0.860508
	H4621	H	0.424093	-0.124544	0.911364
	H4622	H	0.360968	-0.124890	0.922656
	H4623	H	0.486606	-0.375272	0.848616
	H4624	H	0.401688	-0.282427	0.845845
	H4625	H	0.388731	-0.282542	0.821604
	H4626	H	0.384018	-0.214717	0.921532
	H4627	H	0.399527	-0.215018	0.911097
	H4628	H	0.389072	0.033600	0.820690
	H4629	H	0.402055	0.033639	0.845026
	H4630	H	0.399552	-0.534025	0.911200
	H4631	H	0.384041	-0.534022	0.921516
	H4632	H	0.448628	-0.534687	0.904338
	H4633	H	0.465152	-0.535063	0.903453
	H4634	H	0.446597	0.034895	0.859228
	H4635	H	0.462087	0.034674	0.848760
	Al4636	Al	0.423170	-0.000049	0.886050
	Al4637	Al	0.423161	0.250861	0.886054
	Al4638	Al	0.368854	0.249794	0.777774
	Al4639	Al	0.368837	-0.000191	0.777745
	O4640	O	0.433377	0.041132	0.902658
	O4641	O	0.423183	0.125245	0.873776
	O4642	O	0.423445	0.375513	0.898147
	O4643	O	0.480505	0.040111	0.905190
	O4644	O	0.413719	0.041161	0.901416
	O4645	O	0.370065	0.041107	0.932241
	O4646	O	0.413757	0.209655	0.901500
	O4647	O	0.413855	0.290854	0.867343
	O4648	O	0.377190	0.290799	0.798563
	O4649	O	0.433384	0.209588	0.902726
	O4650	O	0.432578	0.291300	0.869978
	O4651	O	0.476185	0.290913	0.838480
	O4652	O	0.370008	0.209455	0.932143
	O4653	O	0.413869	0.458787	0.867183
	O4654	O	0.377208	0.458800	0.798671
	O4655	O	0.476210	0.459034	0.838571
	O4656	O	0.432645	0.459560	0.870104
	O4657	O	0.480533	0.208366	0.905114
	O4658	O	0.360607	0.375511	0.935941
	O4659	O	0.485903	0.125219	0.835215
	C4660	C	0.461625	0.214733	0.903414
	C4661	C	0.466390	0.124570	0.903342
	C4662	C	0.461570	0.034555	0.903563
	C4663	C	0.452245	0.034995	0.904109
	C4664	C	0.447485	0.125217	0.904322
	C4665	C	0.452301	0.215049	0.903978
	C4666	C	0.437369	0.125276	0.903366
	C4667	C	0.476519	0.124356	0.904527
	C4668	C	0.410077	0.125288	0.904041
	C4669	C	0.400723	0.125342	0.910717
	C4670	C	0.396215	0.215017	0.913541
	C4671	C	0.387442	0.215170	0.919213
	C4672	C	0.382955	0.125487	0.922193
	C4673	C	0.387432	0.035597	0.919078
	C4674	C	0.396208	0.035429	0.913401
	C4675	C	0.373654	0.125338	0.929348
	C4676	C	0.410705	0.374613	0.861683
	C4677	C	0.402780	0.374360	0.847092
	C4678	C	0.399037	0.463333	0.840153
	C4679	C	0.391766	0.463246	0.826467
	C4680	C	0.388037	0.374371	0.819430
	C4681	C	0.391741	0.285342	0.826444
	C4682	C	0.399019	0.285385	0.840111
	C4683	C	0.380265	0.374820	0.804373
	C4684	C	0.436246	0.375512	0.867206
	C4685	C	0.445488	0.374977	0.859871
	C4686	C	0.449951	0.285246	0.856786
	C4687	C	0.458695	0.285334	0.850920
	C4688	C	0.463213	0.375007	0.848080
	C4689	C	0.458745	0.464664	0.851079
	C4690	C	0.449989	0.464660	0.856938
	C4691	C	0.472533	0.375026	0.841143
	H4692	H	0.462068	0.215718	0.848531
	H4693	H	0.446574	0.215609	0.859011
	H4694	H	0.465263	0.284647	0.903092
	H4695	H	0.448718	0.285277	0.904151
	H4696	H	0.423333	0.125236	0.860563
	H4697	H	0.424261	0.376164	0.911351
	H4698	H	0.360662	0.375186	0.922757
	H4699	H	0.486686	0.125732	0.848415
	H4700	H	0.401830	0.216651	0.845466
	H4701	H	0.388925	0.216483	0.821048
	H4702	H	0.384055	0.284964	0.921459
	H4703	H	0.399642	0.284681	0.911377
	H4704	H	0.388952	0.532113	0.821083
	H4705	H	0.401847	0.532155	0.845525
	H4706	H	0.399602	-0.034330	0.911140
	H4707	H	0.384015	-0.034146	0.921193
	H4708	H	0.448596	-0.034949	0.904376
	H4709	H	0.465136	-0.035347	0.903371
	H4710	H	0.446607	0.534449	0.859274
	H4711	H	0.462168	0.534265	0.848829
	Al4712	Al	0.428590	-0.500760	0.982747
	Al4713	Al	0.428622	-0.250545	0.982826
	Al4714	Al	0.360539	-0.249929	0.948172
	Al4715	Al	0.360596	-0.499225	0.948191
	O4716	O	0.439273	-0.460199	0.997740
	O4717	O	0.427978	-0.375637	0.970371
	O4718	O	0.429259	-0.125795	0.995189
	O4719	O	0.486393	-0.460109	1.000242
	O4720	O	0.419617	-0.459302	0.999830
	O4721	O	0.375132	-0.459191	1.028331
	O4722	O	0.419583	-0.291327	0.999745
	O4723	O	0.417953	-0.209340	0.967785
	O4724	O	0.370797	-0.208257	0.964804
	O4725	O	0.439256	-0.292089	0.997874
	O4726	O	0.437661	-0.209988	0.965801
	O4727	O	0.482025	-0.209415	0.937241
	O4728	O	0.375192	-0.291221	1.028481
	O4729	O	0.417929	-0.041035	0.967804
	O4730	O	0.370836	-0.039755	0.964681
	O4731	O	0.482083	-0.041428	0.937363
	O4732	O	0.437610	-0.041755	0.965738
	O4733	O	0.486379	-0.291945	1.000175
	O4734	O	0.365461	-0.125243	1.033027
	O4735	O	0.491789	-0.375596	0.932754
	C4736	C	0.467487	-0.285790	0.998609
	C4737	C	0.472279	-0.375741	0.998443
	C4738	C	0.467488	-0.465679	0.998788
	C4739	C	0.458158	-0.466012	0.999341
	C4740	C	0.453365	-0.376034	0.999443
	C4741	C	0.458149	-0.285936	0.999160
	C4742	C	0.443251	-0.376077	0.998383
	C4743	C	0.482385	-0.375895	0.999634
	C4744	C	0.415898	-0.375397	1.002445
	C4745	C	0.406453	-0.375870	1.009126
	C4746	C	0.401865	-0.286132	1.011717
	C4747	C	0.392929	-0.285797	1.016615
	C4748	C	0.388318	-0.375478	1.019115
	C4749	C	0.392904	-0.465340	1.016482
	C4750	C	0.401829	-0.465505	1.011567
	C4751	C	0.378872	-0.375400	1.025740
	C4752	C	0.413939	-0.125169	0.967168
	C4753	C	0.403820	-0.125039	0.965848
	C4754	C	0.399048	-0.034891	0.965749
	C4755	C	0.389706	-0.034804	0.966062
	C4756	C	0.384919	-0.124524	0.966457
	C4757	C	0.389683	-0.214618	0.966497
	C4758	C	0.399017	-0.214775	0.966128
	C4759	C	0.374796	-0.124118	0.965372
	C4760	C	0.441325	-0.125547	0.963091
	C4761	C	0.450745	-0.125087	0.956383
	C4762	C	0.455346	-0.214925	0.953838
	C4763	C	0.464280	-0.215227	0.948959
	C4764	C	0.468889	-0.125424	0.946428
	C4765	C	0.464311	-0.035474	0.949118
	C4766	C	0.455376	-0.035310	0.953991
	C4767	C	0.478338	-0.125293	0.939864
	H4768	H	0.467711	-0.285574	0.947093
	H4769	H	0.451935	-0.285011	0.955723
	H4770	H	0.471075	-0.215507	0.998294
	H4771	H	0.454550	-0.215647	0.999283
	H4772	H	0.427384	-0.375582	0.957134
	H4773	H	0.430162	-0.126258	1.008352
	H4774	H	0.364647	-0.125282	1.019744
	H4775	H	0.492690	-0.375268	0.945909
	H4776	H	0.402598	-0.285123	0.965974
	H4777	H	0.386102	-0.284679	0.966730
	H4778	H	0.389513	-0.215542	1.018530
	H4779	H	0.405297	-0.215763	1.009878
	H4780	H	0.386114	0.035204	0.965958
	H4781	H	0.402627	0.035003	0.965297
	H4782	H	0.405231	-0.535783	1.009616
	H4783	H	0.389479	-0.535709	1.018312
	H4784	H	0.454563	-0.536058	0.999624
	H4785	H	0.471084	-0.535673	0.998606
	H4786	H	0.451958	0.034842	0.956031
	H4787	H	0.467762	0.034638	0.947415
	Al4788	Al	0.428620	-0.000722	0.982818
	Al4789	Al	0.428590	0.249417	0.982723
	Al4790	Al	0.360599	0.250041	0.948096
	Al4791	Al	0.360595	0.001113	0.948052
	O4792	O	0.439253	0.039807	0.997881
	O4793	O	0.427929	0.124408	0.970361
	O4794	O	0.429272	0.374542	0.995062
	O4795	O	0.486379	0.040180	1.000106
	O4796	O	0.419550	0.040705	0.999758
	O4797	O	0.375151	0.040495	1.028438
	O4798	O	0.419507	0.208909	0.999623
	O4799	O	0.417922	0.290426	0.967677
	O4800	O	0.370828	0.291198	0.964788
	O4801	O	0.439201	0.207959	0.997861
	O4802	O	0.437669	0.290017	0.965819
	O4803	O	0.482049	0.290137	0.937240
	O4804	O	0.375172	0.208662	1.028497
	O4805	O	0.417934	0.458697	0.967741
	O4806	O	0.370823	0.459472	0.964794
	O4807	O	0.482134	0.458299	0.937348
	O4808	O	0.437623	0.458374	0.965701
	O4809	O	0.486368	0.208150	1.000122
	O4810	O	0.365511	0.374116	1.033050
	O4811	O	0.491786	0.124308	0.932741
	C4812	C	0.467449	0.214334	0.998633
	C4813	C	0.472262	0.124337	0.998545
	C4814	C	0.467448	0.034492	0.998965
	C4815	C	0.458134	0.034232	0.999485
	C4816	C	0.453329	0.124204	0.999538
	C4817	C	0.458129	0.214089	0.999155
	C4818	C	0.443229	0.124035	0.998446
	C4819	C	0.482369	0.124096	0.999627
	C4820	C	0.415829	0.124647	1.002345
	C4821	C	0.406378	0.124616	1.008958
	C4822	C	0.401778	0.214479	1.011472
	C4823	C	0.392856	0.214548	1.016348
	C4824	C	0.388270	0.124633	1.018974
	C4825	C	0.392860	0.034803	1.016372
	C4826	C	0.401780	0.034627	1.011468
	C4827	C	0.378834	0.124523	1.025731
	C4828	C	0.413934	0.374570	0.967134
	C4829	C	0.403836	0.375043	0.965772
	C4830	C	0.399046	0.464912	0.965694
	C4831	C	0.389724	0.464873	0.966092
	C4832	C	0.384921	0.375128	0.966500
	C4833	C	0.389696	0.285007	0.966414
	C4834	C	0.399032	0.285143	0.966030
	C4835	C	0.374813	0.375415	0.965400
	C4836	C	0.441345	0.374213	0.963130
	C4837	C	0.450800	0.374307	0.956459
	C4838	C	0.455395	0.284428	0.953774
	C4839	C	0.464300	0.284459	0.948918
	C4840	C	0.468910	0.374433	0.946502
	C4841	C	0.464343	0.464145	0.949298
	C4842	C	0.455427	0.464106	0.954139
	C4843	C	0.478375	0.374357	0.939926
	H4844	H	0.467705	0.214410	0.946865
	H4845	H	0.451887	0.214348	0.955442
	H4846	H	0.471049	0.284392	0.998175
	H4847	H	0.454486	0.283867	0.999153
	H4848	H	0.427101	0.124086	0.957255
	H4849	H	0.430135	0.374491	1.008084
	H4850	H	0.364832	0.374252	1.019813
	H4851	H	0.492774	0.124392	0.945844
	H4852	H	0.402646	0.215124	0.965948
	H4853	H	0.386078	0.215162	0.966688
	H4854	H	0.389424	0.284756	1.018115
	H4855	H	0.405227	0.284305	1.009539
	H4856	H	0.386137	0.535048	0.966062
	H4857	H	0.402652	0.534811	0.965341
	H4858	H	0.405178	-0.035789	1.009570
	H4859	H	0.389396	-0.035104	1.018246
	H4860	H	0.454578	-0.035701	0.999771
	H4861	H	0.471065	-0.035646	0.998819
	H4862	H	0.452010	0.534243	0.956100
	H4863	H	0.467809	0.534122	0.947489
	Al4864	Al	0.565511	-0.500856	0.047610
	Al4865	Al	0.565485	-0.251243	0.047501
	Al4866	Al	0.497036	-0.251049	0.015225
	Al4867	Al	0.497025	-0.500995	0.015319
	O4868	O	0.576137	-0.459753	0.062543
	O4869	O	0.564812	-0.376063	0.035209
	O4870	O	0.566203	-0.125842	0.059817
	O4871	O	0.623226	-0.459048	0.064775
	O4872	O	0.556498	-0.459762	0.064664
	O4873	O	0.512010	-0.460142	0.093076
	O4874	O	0.556489	-0.291594	0.064647
	O4875	O	0.554829	-0.210179	0.032478
	O4876	O	0.507684	-0.210267	0.030241
	O4877	O	0.576119	-0.291791	0.062593
	O4878	O	0.574537	-0.210036	0.030529
	O4879	O	0.618983	-0.209484	0.002170
	O4880	O	0.512030	-0.292210	0.093129
	O4881	O	0.554819	-0.042120	0.032457
	O4882	O	0.507678	-0.042093	0.030189
	O4883	O	0.618936	-0.041486	0.002088
	O4884	O	0.574506	-0.041866	0.030409
	O4885	O	0.623221	-0.290689	0.064680
	O4886	O	0.502319	-0.126023	0.097792
	O4887	O	0.628661	-0.375269	-0.002625
	C4888	C	0.604336	-0.285009	0.063701
	C4889	C	0.609136	-0.374864	0.063234
	C4890	C	0.604367	-0.465052	0.063310
	C4891	C	0.595041	-0.465247	0.063868
	C4892	C	0.590235	-0.375319	0.064215
	C4893	C	0.595009	-0.285201	0.064251
	C4894	C	0.580128	-0.375680	0.063170
	C4895	C	0.619247	-0.374962	0.064176
	C4896	C	0.552805	-0.375835	0.067310
	C4897	C	0.543314	-0.376009	0.073845
	C4898	C	0.538677	-0.286230	0.076282
	C4899	C	0.529749	-0.286380	0.081045
	C4900	C	0.525184	-0.376341	0.083770
	C4901	C	0.529838	-0.466057	0.081387
	C4902	C	0.538757	-0.465941	0.076593
	C4903	C	0.515718	-0.376215	0.090414
	C4904	C	0.550820	-0.126158	0.031982
	C4905	C	0.540685	-0.126119	0.030930
	C4906	C	0.535893	-0.036205	0.031190
	C4907	C	0.526546	-0.036191	0.031734
	C4908	C	0.521767	-0.126218	0.031917
	C4909	C	0.526565	-0.216197	0.031663
	C4910	C	0.535895	-0.216102	0.031109
	C4911	C	0.511657	-0.126192	0.030844
	C4912	C	0.578209	-0.125865	0.027819
	C4913	C	0.587663	-0.125955	0.021247
	C4914	C	0.592262	-0.215769	0.018744
	C4915	C	0.601189	-0.215594	0.013896
	C4916	C	0.605790	-0.125757	0.011287
	C4917	C	0.601180	-0.035929	0.013759
	C4918	C	0.592251	-0.036106	0.018599
	C4919	C	0.615253	-0.125673	0.004737
	H4920	H	0.604669	-0.285780	0.012109
	H4921	H	0.588850	-0.286221	0.020697
	H4922	H	0.607911	-0.214912	0.063617
	H4923	H	0.591390	-0.215207	0.064688
	H4924	H	0.563845	-0.376075	0.022061
	H4925	H	0.567181	-0.125818	0.072971
	H4926	H	0.501305	-0.125988	0.084555
	H4927	H	0.629712	-0.375462	0.010582
	H4928	H	0.539468	-0.286416	0.030705
	H4929	H	0.522957	-0.286286	0.031822
	H4930	H	0.526243	-0.216366	0.082733
	H4931	H	0.542091	-0.216013	0.074325
	H4932	H	0.522962	0.033810	0.031930
	H4933	H	0.539478	0.033868	0.030868
	H4934	H	0.542244	-0.535688	0.074845
	H4935	H	0.526415	-0.536278	0.083326
	H4936	H	0.591450	-0.535485	0.064013
	H4937	H	0.607992	-0.535265	0.062954
	H4938	H	0.588798	0.033931	0.020402
	H4939	H	0.604594	0.034182	0.011854
	Al4940	Al	0.565460	-0.000985	0.047464
	Al4941	Al	0.565483	0.249022	0.047559
	Al4942	Al	0.497042	0.248878	0.015158
	Al4943	Al	0.497013	-0.000974	0.015160
	O4944	O	0.576119	0.039816	0.062478
	O4945	O	0.564810	0.124017	0.035203
	O4946	O	0.566133	0.373975	0.059983
	O4947	O	0.623264	0.040891	0.064589
	O4948	O	0.556472	0.040019	0.064582
	O4949	O	0.512054	0.039538	0.093297
	O4950	O	0.556444	0.208122	0.064538
	O4951	O	0.554887	0.290337	0.032404
	O4952	O	0.507705	0.289748	0.030121
	O4953	O	0.576103	0.207925	0.062811
	O4954	O	0.574498	0.289958	0.030559
	O4955	O	0.618974	0.290888	0.002113
	O4956	O	0.511992	0.207428	0.093090
	O4957	O	0.554821	0.458540	0.032644
	O4958	O	0.507673	0.457730	0.030421
	O4959	O	0.618894	0.458945	0.001932
	O4960	O	0.574534	0.458038	0.030586
	O4961	O	0.623183	0.209146	0.064812
	O4962	O	0.502308	0.373625	0.097650
	O4963	O	0.628670	0.124932	-0.002502
	C4964	C	0.604339	0.213968	0.063491
	C4965	C	0.609125	0.124158	0.063168
	C4966	C	0.604337	0.034275	0.063462
	C4967	C	0.595007	0.034062	0.064027
	C4968	C	0.590215	0.123904	0.064314
	C4969	C	0.595011	0.213760	0.064082
	C4970	C	0.580111	0.123959	0.063211
	C4971	C	0.619225	0.124897	0.064201
	C4972	C	0.552733	0.124056	0.067182
	C4973	C	0.543310	0.123836	0.073854
	C4974	C	0.538673	0.213449	0.076245
	C4975	C	0.529732	0.213406	0.081112
	C4976	C	0.525167	0.123606	0.083819
	C4977	C	0.529776	0.033972	0.081373
	C4978	C	0.538717	0.034109	0.076454
	C4979	C	0.515730	0.123590	0.090509
	C4980	C	0.550855	0.374263	0.031992
	C4981	C	0.540746	0.373630	0.030905
	C4982	C	0.535945	0.463424	0.031138
	C4983	C	0.526620	0.463373	0.031683
	C4984	C	0.521817	0.373538	0.031934
	C4985	C	0.526618	0.283733	0.031563
	C4986	C	0.535952	0.283765	0.031011
	C4987	C	0.511693	0.373731	0.030800
	C4988	C	0.578222	0.373848	0.027958
	C4989	C	0.587656	0.373986	0.021347
	C4990	C	0.592307	0.284296	0.018970
	C4991	C	0.601236	0.284497	0.014058
	C4992	C	0.605826	0.374434	0.011399
	C4993	C	0.601167	0.464072	0.013770
	C4994	C	0.592228	0.463895	0.018672
	C4995	C	0.615247	0.374745	0.004738
	H4996	H	0.604697	0.214428	0.012246
	H4997	H	0.588876	0.214132	0.020910
	H4998	H	0.607918	0.284197	0.063232
	H4999	H	0.591411	0.283706	0.064315
	H5000	H	0.563908	0.124066	0.022104
	H5001	H	0.566937	0.373273	0.073215
	H5002	H	0.501408	0.373339	0.084444
	H5003	H	0.629536	0.124657	0.010696
	H5004	H	0.539562	0.213661	0.030737
	H5005	H	0.523042	0.213605	0.031716
	H5006	H	0.526317	0.283817	0.082903
	H5007	H	0.542065	0.283687	0.074275
	H5008	H	0.523012	0.533390	0.031903
	H5009	H	0.539510	0.533684	0.031004
	H5010	H	0.542152	-0.036110	0.074693
	H5011	H	0.526371	-0.036301	0.083401
	H5012	H	0.591420	-0.036085	0.064225
	H5013	H	0.607932	-0.035773	0.063118
	H5014	H	0.588778	0.533968	0.020403
	H5015	H	0.604581	0.534196	0.011740
	Al5016	Al	0.571399	-0.500690	0.142313
	Al5017	Al	0.571408	-0.250688	0.142291
	Al5018	Al	0.502985	-0.250949	0.110117
	Al5019	Al	0.502948	-0.501246	0.109963
	O5020	O	0.581998	-0.459833	0.157507
	O5021	O	0.570767	-0.376014	0.130021
	O5022	O	0.572021	-0.125661	0.154647
	O5023	O	0.629135	-0.458638	0.160053
	O5024	O	0.562406	-0.459644	0.159312
	O5025	O	0.518021	-0.459966	0.187987
	O5026	O	0.562358	-0.291484	0.159189
	O5027	O	0.560797	-0.209971	0.127059
	O5028	O	0.513675	-0.210631	0.125145
	O5029	O	0.581971	-0.291498	0.157518
	O5030	O	0.580444	-0.209131	0.125397
	O5031	O	0.624902	-0.208597	0.096951
	O5032	O	0.517994	-0.291915	0.187961
	O5033	O	0.560803	-0.041508	0.127178
	O5034	O	0.513658	-0.042224	0.125203
	O5035	O	0.624874	-0.040557	0.096841
	O5036	O	0.580492	-0.040996	0.125437
	O5037	O	0.629088	-0.290343	0.160358
	O5038	O	0.508225	-0.126109	0.192581
	O5039	O	0.634418	-0.374535	0.092196
	C5040	C	0.610223	-0.285053	0.158784
	C5041	C	0.615013	-0.375065	0.158492
	C5042	C	0.610240	-0.465142	0.158639
	C5043	C	0.600911	-0.465259	0.159068
	C5044	C	0.596106	-0.375412	0.159285
	C5045	C	0.600901	-0.285251	0.159202
	C5046	C	0.585976	-0.375642	0.158115
	C5047	C	0.625128	-0.374708	0.159603
	C5048	C	0.558715	-0.375738	0.161962
	C5049	C	0.549303	-0.375740	0.168788
	C5050	C	0.544694	-0.285864	0.171243
	C5051	C	0.535772	-0.285994	0.176189
	C5052	C	0.531190	-0.375795	0.178848
	C5053	C	0.535797	-0.465712	0.176322
	C5054	C	0.544709	-0.465619	0.171388
	C5055	C	0.521720	-0.375886	0.185341
	C5056	C	0.556814	-0.125716	0.126551
	C5057	C	0.546694	-0.125697	0.125580
	C5058	C	0.541892	-0.035698	0.126070
	C5059	C	0.532568	-0.035987	0.126685
	C5060	C	0.527783	-0.126278	0.126718
	C5061	C	0.532585	-0.216234	0.126299
	C5062	C	0.541911	-0.216015	0.125672
	C5063	C	0.517658	-0.126381	0.125736
	C5064	C	0.584158	-0.125106	0.122788
	C5065	C	0.593614	-0.125235	0.116252
	C5066	C	0.598224	-0.214943	0.113723
	C5067	C	0.607169	-0.214837	0.108884
	C5068	C	0.611757	-0.125071	0.106326
	C5069	C	0.607146	-0.035473	0.108831
	C5070	C	0.598211	-0.035465	0.113703
	C5071	C	0.621190	-0.124760	0.099590
	H5072	H	0.610617	-0.284762	0.107016
	H5073	H	0.594823	-0.285456	0.115519
	H5074	H	0.613802	-0.214947	0.158643
	H5075	H	0.597284	-0.215349	0.159438
	H5076	H	0.569770	-0.375722	0.116827
	H5077	H	0.572801	-0.126264	0.167860
	H5078	H	0.507135	-0.125412	0.179353
	H5079	H	0.634959	-0.373816	0.105445
	H5080	H	0.545494	-0.286222	0.125196
	H5081	H	0.528973	-0.286027	0.126479
	H5082	H	0.532346	-0.215750	0.178077
	H5083	H	0.548117	-0.215875	0.169312
	H5084	H	0.528976	0.034151	0.127151
	H5085	H	0.545496	0.034306	0.125885
	H5086	H	0.548167	-0.535863	0.169597
	H5087	H	0.532389	-0.535760	0.178370
	H5088	H	0.597332	-0.535444	0.159219
	H5089	H	0.613859	-0.535229	0.158376
	H5090	H	0.594770	0.034727	0.115525
	H5091	H	0.610553	0.034779	0.106907
	Al5092	Al	0.571396	-0.000559	0.142466
	Al5093	Al	0.571335	0.249071	0.142401
	Al5094	Al	0.502983	0.248739	0.110045
	Al5095	Al	0.503004	-0.001170	0.110249
	O5096	O	0.582002	0.040288	0.157616
	O5097	O	0.570787	0.124469	0.130122
	O5098	O	0.571996	0.374257	0.154682
	O5099	O	0.629132	0.040927	0.160101
	O5100	O	0.562328	0.040219	0.159336
	O5101	O	0.517874	0.040031	0.187883
	O5102	O	0.562342	0.208301	0.159433
	O5103	O	0.560722	0.289689	0.127320
	O5104	O	0.513587	0.289696	0.125091
	O5105	O	0.582009	0.208723	0.157575
	O5106	O	0.580419	0.290043	0.125367
	O5107	O	0.624878	0.291042	0.097005
	O5108	O	0.517884	0.208102	0.187789
	O5109	O	0.560746	0.458031	0.127235
	O5110	O	0.513611	0.458008	0.125129
	O5111	O	0.624783	0.459157	0.096743
	O5112	O	0.580432	0.458116	0.125353
	O5113	O	0.629161	0.209266	0.160046
	O5114	O	0.508239	0.374250	0.192520
	O5115	O	0.634495	0.125137	0.092113
	C5116	C	0.610228	0.215039	0.158851
	C5117	C	0.615026	0.125143	0.158498
	C5118	C	0.610222	0.035189	0.158656
	C5119	C	0.600886	0.034889	0.159153
	C5120	C	0.596097	0.124761	0.159485
	C5121	C	0.600888	0.214735	0.159347
	C5122	C	0.585997	0.124581	0.158261
	C5123	C	0.625149	0.125211	0.159566
	C5124	C	0.558647	0.124159	0.162117
	C5125	C	0.549184	0.123820	0.168760
	C5126	C	0.544572	0.213692	0.171101
	C5127	C	0.535624	0.213856	0.175911
	C5128	C	0.531039	0.124058	0.178609
	C5129	C	0.535636	0.034172	0.176187
	C5130	C	0.544583	0.034003	0.171352
	C5131	C	0.521558	0.124062	0.185214
	C5132	C	0.556751	0.373947	0.126756
	C5133	C	0.546632	0.373837	0.125715
	C5134	C	0.541853	0.463780	0.126126
	C5135	C	0.532512	0.463688	0.126679
	C5136	C	0.527723	0.373813	0.126788
	C5137	C	0.532516	0.283870	0.126455
	C5138	C	0.541841	0.283842	0.125896
	C5139	C	0.517596	0.373915	0.125650
	C5140	C	0.584134	0.374076	0.122760
	C5141	C	0.593577	0.374294	0.116181
	C5142	C	0.598192	0.284654	0.113658
	C5143	C	0.607120	0.284732	0.108768
	C5144	C	0.611692	0.374625	0.106163
	C5145	C	0.607073	0.464399	0.108654
	C5146	C	0.598139	0.464219	0.113555
	C5147	C	0.621129	0.374968	0.099560
	H5148	H	0.610554	0.214611	0.106918
	H5149	H	0.594762	0.214833	0.115625
	H5150	H	0.613833	0.285245	0.158611
	H5151	H	0.597280	0.284771	0.159579
	H5152	H	0.570039	0.124577	0.116863
	H5153	H	0.572952	0.374479	0.167874
	H5154	H	0.507287	0.374021	0.179314
	H5155	H	0.635321	0.124925	0.105328
	H5156	H	0.545440	0.213806	0.125613
	H5157	H	0.528958	0.213686	0.126641
	H5158	H	0.532173	0.283985	0.177617
	H5159	H	0.547978	0.284158	0.169098
	H5160	H	0.528900	0.533585	0.127010
	H5161	H	0.545440	0.534065	0.126045
	H5162	H	0.548007	-0.036326	0.169521
	H5163	H	0.532216	-0.036142	0.178066
	H5164	H	0.597298	-0.035324	0.159187
	H5165	H	0.613818	-0.034890	0.158260
	H5166	H	0.594701	0.534476	0.115391
	H5167	H	0.610488	0.534410	0.106709
	Al5168	Al	0.576868	-0.499459	0.239364
	Al5169	Al	0.576843	-0.250517	0.239285
	Al5170	Al	0.508901	-0.251078	0.204859
	Al5171	Al	0.508924	-0.500976	0.204870
	O5172	O	0.586184	-0.458940	0.258041
	O5173	O	0.576588	-0.374860	0.227158
	O5174	O	0.576890	-0.125019	0.251602
	O5175	O	0.622924	-0.458482	0.326552
	O5176	O	0.567434	-0.459100	0.255250
	O5177	O	0.523765	-0.459516	0.286193
	O5178	O	0.567446	-0.290937	0.255343
	O5179	O	0.566627	-0.208906	0.222697
	O5180	O	0.519507	-0.209956	0.220146
	O5181	O	0.586144	-0.291040	0.258086
	O5182	O	0.586292	-0.209573	0.223902
	O5183	O	0.629929	-0.209246	0.192763
	O5184	O	0.523822	-0.291259	0.286283
	O5185	O	0.566583	-0.040623	0.222850
	O5186	O	0.519489	-0.041713	0.220049
	O5187	O	0.629879	-0.040974	0.192611
	O5188	O	0.586269	-0.041165	0.223872
	O5189	O	0.622876	-0.290155	0.326612
	O5190	O	0.514065	-0.125199	0.289394
	O5191	O	0.639402	-0.374909	0.189009
	C5192	C	0.608325	-0.285774	0.298839
	C5193	C	0.612062	-0.374691	0.305874
	C5194	C	0.608301	-0.463773	0.298885
	C5195	C	0.601009	-0.463793	0.285256
	C5196	C	0.597219	-0.374797	0.278358
	C5197	C	0.601031	-0.285867	0.285240
	C5198	C	0.589294	-0.374748	0.263732
	C5199	C	0.619815	-0.374515	0.320876
	C5200	C	0.563810	-0.375099	0.258142
	C5201	C	0.554546	-0.375322	0.265360
	C5202	C	0.550041	-0.285819	0.268348
	C5203	C	0.541285	-0.285876	0.274085
	C5204	C	0.536796	-0.375502	0.276917
	C5205	C	0.541321	-0.465065	0.274162
	C5206	C	0.550089	-0.465122	0.268415
	C5207	C	0.527469	-0.375469	0.283667
	C5208	C	0.562608	-0.124953	0.222155
	C5209	C	0.552509	-0.125433	0.221039
	C5210	C	0.547714	-0.035613	0.221473
	C5211	C	0.538393	-0.035729	0.221888
	C5212	C	0.533596	-0.125639	0.221815
	C5213	C	0.538399	-0.215406	0.221634
	C5214	C	0.547726	-0.215307	0.221194
	C5215	C	0.523500	-0.125809	0.220714
	C5216	C	0.589930	-0.125416	0.221258
	C5217	C	0.599267	-0.125168	0.214440
	C5218	C	0.603783	-0.215035	0.211768
	C5219	C	0.612548	-0.215023	0.205982
	C5220	C	0.616985	-0.125284	0.202755
	C5221	C	0.612482	-0.035420	0.205647
	C5222	C	0.603724	-0.035388	0.211467
	C5223	C	0.626266	-0.125170	0.195501
	H5224	H	0.615936	-0.284828	0.203804
	H5225	H	0.600425	-0.284807	0.214197
	H5226	H	0.611165	-0.216665	0.304164
	H5227	H	0.598181	-0.216932	0.280023
	H5228	H	0.575981	-0.375160	0.213948
	H5229	H	0.576800	-0.125497	0.264787
	H5230	H	0.513216	-0.125191	0.276230
	H5231	H	0.639251	-0.374969	0.202267
	H5232	H	0.551337	-0.285131	0.220915
	H5233	H	0.534800	-0.285450	0.221769
	H5234	H	0.537873	-0.216189	0.276303
	H5235	H	0.553399	-0.215795	0.266086
	H5236	H	0.534780	0.034185	0.222212
	H5237	H	0.551311	0.034391	0.221403
	H5238	H	0.553483	-0.534709	0.266184
	H5239	H	0.537953	-0.534562	0.276461
	H5240	H	0.598145	-0.532705	0.279931
	H5241	H	0.611120	-0.532751	0.304250
	H5242	H	0.600309	0.034177	0.213635
	H5243	H	0.615810	0.034430	0.203143
	Al5244	Al	0.576876	0.000452	0.239385
	Al5245	Al	0.576899	0.249452	0.239505
	Al5246	Al	0.508894	0.249257	0.204869
	Al5247	Al	0.508891	-0.001066	0.204903
	O5248	O	0.586158	0.040780	0.258209
	O5249	O	0.576554	0.124977	0.227269
	O5250	O	0.576878	0.375058	0.251635
	O5251	O	0.622944	0.041426	0.326692
	O5252	O	0.567433	0.040898	0.255382
	O5253	O	0.523821	0.040634	0.286222
	O5254	O	0.567448	0.209430	0.255541
	O5255	O	0.566636	0.290279	0.222779
	O5256	O	0.519557	0.289917	0.219949
	O5257	O	0.586157	0.208832	0.258228
	O5258	O	0.586317	0.291050	0.224051
	O5259	O	0.629923	0.291443	0.192604
	O5260	O	0.523751	0.209137	0.286150
	O5261	O	0.566620	0.458864	0.222737
	O5262	O	0.519537	0.458103	0.219994
	O5263	O	0.629914	0.459699	0.192621
	O5264	O	0.586321	0.459407	0.223936
	O5265	O	0.622924	0.209440	0.326671
	O5266	O	0.514035	0.374292	0.289409
	O5267	O	0.639365	0.125337	0.188994
	C5268	C	0.608372	0.213730	0.298866
	C5269	C	0.612096	0.124819	0.305905
	C5270	C	0.608325	0.035598	0.299048
	C5271	C	0.601007	0.035708	0.285372
	C5272	C	0.597277	0.124746	0.278347
	C5273	C	0.601048	0.213757	0.285203
	C5274	C	0.589337	0.124686	0.263773
	C5275	C	0.619874	0.125266	0.320925
	C5276	C	0.563836	0.125099	0.258303
	C5277	C	0.554556	0.125232	0.265617
	C5278	C	0.550087	0.215085	0.268575
	C5279	C	0.541315	0.214836	0.274223
	C5280	C	0.536824	0.125034	0.276968
	C5281	C	0.541328	0.035134	0.274195
	C5282	C	0.550094	0.035420	0.268556
	C5283	C	0.527464	0.125005	0.283673
	C5284	C	0.562656	0.374567	0.222213
	C5285	C	0.552553	0.374416	0.221061
	C5286	C	0.547764	0.464216	0.221397
	C5287	C	0.538434	0.464340	0.221805
	C5288	C	0.533651	0.374292	0.221882
	C5289	C	0.538447	0.284240	0.221692
	C5290	C	0.547781	0.284399	0.221313
	C5291	C	0.523538	0.374077	0.220583
	C5292	C	0.589982	0.375210	0.221371
	C5293	C	0.599296	0.375243	0.214456
	C5294	C	0.603752	0.285467	0.211392
	C5295	C	0.612515	0.285605	0.205631
	C5296	C	0.617032	0.375289	0.202760
	C5297	C	0.612600	0.465128	0.206068
	C5298	C	0.603847	0.465029	0.211871
	C5299	C	0.626314	0.375606	0.195523
	H5300	H	0.615901	0.215705	0.203436
	H5301	H	0.600335	0.215908	0.213589
	H5302	H	0.611181	0.283074	0.304103
	H5303	H	0.598252	0.283021	0.279839
	H5304	H	0.575708	0.125142	0.214083
	H5305	H	0.576621	0.375234	0.264832
	H5306	H	0.513291	0.374554	0.276196
	H5307	H	0.639304	0.125053	0.202195
	H5308	H	0.551353	0.214453	0.221069
	H5309	H	0.534830	0.214342	0.221685
	H5310	H	0.537912	0.284481	0.276506
	H5311	H	0.553466	0.284704	0.266294
	H5312	H	0.534830	0.534243	0.221951
	H5313	H	0.551382	0.534254	0.221278
	H5314	H	0.553492	-0.034272	0.266234
	H5315	H	0.537967	-0.034543	0.276417
	H5316	H	0.598200	-0.033500	0.280181
	H5317	H	0.611115	-0.033260	0.304366
	H5318	H	0.600504	0.534617	0.214416
	H5319	H	0.616060	0.534604	0.204130
	Al5320	Al	0.568759	-0.499743	0.409764
	Al5321	Al	0.568730	-0.249877	0.409745
	Al5322	Al	0.514377	-0.249532	0.301666
	Al5323	Al	0.514359	-0.500764	0.301583
	O5324	O	0.576898	-0.458826	0.430988
	O5325	O	0.569407	-0.374648	0.397847
	O5326	O	0.568033	-0.124898	0.421685
	O5327	O	0.610623	-0.458678	0.506277
	O5328	O	0.558596	-0.458851	0.422915
	O5329	O	0.516258	-0.458986	0.458721
	O5330	O	0.558618	-0.290548	0.423055
	O5331	O	0.560423	-0.208602	0.388905
	O5332	O	0.523666	-0.208846	0.320497
	O5333	O	0.576926	-0.290933	0.430914
	O5334	O	0.578799	-0.209028	0.396392
	O5335	O	0.621220	-0.208567	0.360924
	O5336	O	0.516295	-0.290656	0.458875
	O5337	O	0.560364	-0.040436	0.389012
	O5338	O	0.523694	-0.040950	0.320391
	O5339	O	0.621170	-0.040264	0.360881
	O5340	O	0.578824	-0.040824	0.396419
	O5341	O	0.610631	-0.290468	0.506236
	O5342	O	0.506843	-0.125016	0.460272
	O5343	O	0.630577	-0.374789	0.359281
	C5344	C	0.597134	-0.285827	0.476051
	C5345	C	0.600555	-0.374660	0.483751
	C5346	C	0.597109	-0.463484	0.476124
	C5347	C	0.590400	-0.463553	0.461138
	C5348	C	0.586988	-0.374685	0.453408
	C5349	C	0.590441	-0.285791	0.461038
	C5350	C	0.579754	-0.374774	0.437188
	C5351	C	0.607768	-0.374646	0.499973
	C5352	C	0.555039	-0.374873	0.425895
	C5353	C	0.545970	-0.374948	0.433724
	C5354	C	0.541668	-0.285572	0.437313
	C5355	C	0.533191	-0.285351	0.444417
	C5356	C	0.528864	-0.374802	0.447909
	C5357	C	0.533160	-0.464205	0.444305
	C5358	C	0.541641	-0.464213	0.437241
	C5359	C	0.519823	-0.374976	0.455859
	C5360	C	0.557337	-0.124761	0.383166
	C5361	C	0.549578	-0.124608	0.368141
	C5362	C	0.545892	-0.035780	0.361058
	C5363	C	0.538591	-0.035782	0.347399
	C5364	C	0.534809	-0.124766	0.340545
	C5365	C	0.538550	-0.213704	0.347481
	C5366	C	0.545860	-0.213561	0.361131
	C5367	C	0.526840	-0.124879	0.326042
	C5368	C	0.582380	-0.124982	0.393474
	C5369	C	0.591458	-0.125138	0.385691
	C5370	C	0.595785	-0.214145	0.382160
	C5371	C	0.604264	-0.213927	0.375092
	C5372	C	0.608550	-0.124752	0.371493
	C5373	C	0.604211	-0.035690	0.374985
	C5374	C	0.595731	-0.035906	0.382055
	C5375	C	0.617625	-0.124479	0.363774
	H5376	H	0.607581	-0.282776	0.372328
	H5377	H	0.592508	-0.282779	0.385027
	H5378	H	0.599717	-0.216823	0.481877
	H5379	H	0.587876	-0.216771	0.455192
	H5380	H	0.570078	-0.374277	0.384818
	H5381	H	0.567147	-0.124677	0.434592
	H5382	H	0.507546	-0.124384	0.447268
	H5383	H	0.629839	-0.375054	0.372262
	H5384	H	0.548678	-0.282450	0.366414
	H5385	H	0.535739	-0.282948	0.342192
	H5386	H	0.529904	-0.216645	0.447318
	H5387	H	0.545004	-0.216901	0.434507
	H5388	H	0.535801	0.033177	0.342058
	H5389	H	0.548742	0.033186	0.366297
	H5390	H	0.544918	-0.533304	0.434380
	H5391	H	0.529863	-0.533095	0.447165
	H5392	H	0.587796	-0.532645	0.455355
	H5393	H	0.599678	-0.532554	0.481965
	H5394	H	0.592395	0.032610	0.384826
	H5395	H	0.607494	0.033379	0.372089
	Al5396	Al	0.568762	0.000283	0.409822
	Al5397	Al	0.568756	0.250231	0.409829
	Al5398	Al	0.514346	0.250178	0.301643
	Al5399	Al	0.514383	-0.000570	0.301610
	O5400	O	0.576973	0.041206	0.431009
	O5401	O	0.569434	0.125137	0.397995
	O5402	O	0.568004	0.375242	0.421721
	O5403	O	0.610629	0.041306	0.506334
	O5404	O	0.558700	0.040895	0.423252
	O5405	O	0.516307	0.040513	0.458696
	O5406	O	0.558658	0.209313	0.423169
	O5407	O	0.560376	0.290572	0.388946
	O5408	O	0.523714	0.290319	0.320331
	O5409	O	0.576943	0.209038	0.431002
	O5410	O	0.578828	0.290553	0.396532
	O5411	O	0.621219	0.290939	0.360848
	O5412	O	0.516280	0.209056	0.458713
	O5413	O	0.560432	0.458690	0.388924
	O5414	O	0.523648	0.458126	0.320349
	O5415	O	0.621198	0.459256	0.360859
	O5416	O	0.578828	0.458989	0.396442
	O5417	O	0.610737	0.209234	0.506296
	O5418	O	0.506927	0.375025	0.460331
	O5419	O	0.630567	0.125273	0.359418
	C5420	C	0.597146	0.214103	0.476153
	C5421	C	0.600576	0.125340	0.483885
	C5422	C	0.597123	0.036334	0.476232
	C5423	C	0.590439	0.036396	0.461233
	C5424	C	0.587015	0.125355	0.453491
	C5425	C	0.590465	0.214350	0.461143
	C5426	C	0.579806	0.125219	0.437287
	C5427	C	0.607787	0.125178	0.500072
	C5428	C	0.555102	0.125154	0.426095
	C5429	C	0.546025	0.125169	0.433873
	C5430	C	0.541705	0.214468	0.437361
	C5431	C	0.533191	0.214393	0.444330
	C5432	C	0.528877	0.125045	0.447838
	C5433	C	0.533207	0.035649	0.444368
	C5434	C	0.541721	0.035913	0.437409
	C5435	C	0.519837	0.124813	0.455736
	C5436	C	0.557353	0.374824	0.383103
	C5437	C	0.549548	0.374586	0.368147
	C5438	C	0.545799	0.463480	0.361135
	C5439	C	0.538496	0.463362	0.347485
	C5440	C	0.534779	0.374421	0.340488
	C5441	C	0.538573	0.285485	0.347391
	C5442	C	0.545862	0.285524	0.361063
	C5443	C	0.526811	0.374201	0.325979
	C5444	C	0.582399	0.374725	0.393562
	C5445	C	0.591456	0.374716	0.385749
	C5446	C	0.595753	0.285622	0.382098
	C5447	C	0.604256	0.285805	0.375056
	C5448	C	0.608577	0.375033	0.371579
	C5449	C	0.604259	0.464137	0.375199
	C5450	C	0.595768	0.464084	0.382249
	C5451	C	0.617668	0.374898	0.363831
	H5452	H	0.607575	0.217122	0.372227
	H5453	H	0.592445	0.216580	0.384853
	H5454	H	0.599739	0.283263	0.482015
	H5455	H	0.587866	0.283359	0.455330
	H5456	H	0.570073	0.125565	0.385024
	H5457	H	0.567164	0.375620	0.434656
	H5458	H	0.507457	0.375807	0.447282
	H5459	H	0.629672	0.125376	0.372352
	H5460	H	0.548703	0.216770	0.366302
	H5461	H	0.535788	0.216332	0.342017
	H5462	H	0.529900	0.283359	0.447143
	H5463	H	0.544974	0.283274	0.434553
	H5464	H	0.535648	0.532609	0.342227
	H5465	H	0.548587	0.532645	0.366455
	H5466	H	0.545051	-0.032751	0.434631
	H5467	H	0.529925	-0.033167	0.447216
	H5468	H	0.587811	-0.032465	0.455449
	H5469	H	0.599683	-0.032939	0.482112
	H5470	H	0.592482	0.532980	0.385115
	H5471	H	0.607550	0.532979	0.372513
	Al5472	Al	0.556313	-0.499840	0.589869
	Al5473	Al	0.556310	-0.249564	0.589799
	Al5474	Al	0.506202	-0.249959	0.472165
	Al5475	Al	0.506249	-0.500123	0.472200
	O5476	O	0.564623	-0.458810	0.610853
	O5477	O	0.556965	-0.374636	0.577956
	O5478	O	0.555595	-0.124538	0.601572
	O5479	O	0.601353	-0.458637	0.679185
	O5480	O	0.546219	-0.458907	0.603124
	O5481	O	0.503860	-0.459055	0.638980
	O5482	O	0.546228	-0.290252	0.603159
	O5483	O	0.548127	-0.208802	0.568630
	O5484	O	0.514404	-0.209092	0.493319
	O5485	O	0.564622	-0.290797	0.610702
	O5486	O	0.566426	-0.208853	0.576509
	O5487	O	0.608750	-0.208659	0.540840
	O5488	O	0.503885	-0.290626	0.639067
	O5489	O	0.548077	-0.040597	0.568660
	O5490	O	0.514431	-0.041135	0.493237
	O5491	O	0.608743	-0.040226	0.540896
	O5492	O	0.566386	-0.040615	0.576520
	O5493	O	0.601339	-0.290506	0.679262
	O5494	O	0.494506	-0.124874	0.640527
	O5495	O	0.618140	-0.374630	0.539330
	C5496	C	0.586509	-0.285303	0.652187
	C5497	C	0.590272	-0.374373	0.659057
	C5498	C	0.586508	-0.463426	0.652140
	C5499	C	0.579199	-0.463572	0.638508
	C5500	C	0.575487	-0.374580	0.631494
	C5501	C	0.579195	-0.285360	0.638534
	C5502	C	0.567689	-0.374653	0.616509
	C5503	C	0.598217	-0.374481	0.673606
	C5504	C	0.542687	-0.374548	0.606127
	C5505	C	0.533647	-0.374760	0.614112
	C5506	C	0.529363	-0.285441	0.617810
	C5507	C	0.520868	-0.285534	0.624883
	C5508	C	0.516529	-0.374956	0.628287
	C5509	C	0.520812	-0.464419	0.624533
	C5510	C	0.529310	-0.464360	0.617466
	C5511	C	0.507441	-0.374966	0.636121
	C5512	C	0.545226	-0.124727	0.562389
	C5513	C	0.538036	-0.125115	0.546134
	C5514	C	0.534632	-0.036116	0.538373
	C5515	C	0.527975	-0.036318	0.523321
	C5516	C	0.524517	-0.125239	0.515723
	C5517	C	0.527898	-0.214204	0.523532
	C5518	C	0.534569	-0.214086	0.538553
	C5519	C	0.517297	-0.125130	0.499507
	C5520	C	0.569973	-0.124593	0.573604
	C5521	C	0.579020	-0.124497	0.565746
	C5522	C	0.583320	-0.213909	0.562243
	C5523	C	0.591818	-0.213881	0.555218
	C5524	C	0.596138	-0.124551	0.551695
	C5525	C	0.591837	-0.035184	0.555233
	C5526	C	0.583332	-0.035143	0.562224
	C5527	C	0.605210	-0.124628	0.543879
	H5528	H	0.595135	-0.282564	0.552557
	H5529	H	0.580015	-0.282542	0.565166
	H5530	H	0.589319	-0.216351	0.657494
	H5531	H	0.576384	-0.216326	0.633232
	H5532	H	0.557675	-0.375117	0.565043
	H5533	H	0.554803	-0.124988	0.614666
	H5534	H	0.495349	-0.125129	0.627503
	H5535	H	0.617575	-0.374431	0.552406
	H5536	H	0.537090	-0.282904	0.544521
	H5537	H	0.525301	-0.283211	0.517722
	H5538	H	0.517566	-0.216794	0.627831
	H5539	H	0.532695	-0.216495	0.615104
	H5540	H	0.525408	0.032741	0.517392
	H5541	H	0.537221	0.032790	0.544177
	H5542	H	0.532586	-0.533139	0.614490
	H5543	H	0.517471	-0.533377	0.627172
	H5544	H	0.576402	-0.532611	0.633175
	H5545	H	0.589334	-0.532720	0.657432
	H5546	H	0.580045	0.033805	0.565094
	H5547	H	0.595182	0.033610	0.552497
	Al5548	Al	0.556275	0.000014	0.589802
	Al5549	Al	0.556294	0.250000	0.589853
	Al5550	Al	0.506229	0.249877	0.472105
	Al5551	Al	0.506234	-0.000156	0.472156
	O5552	O	0.564648	0.041080	0.610732
	O5553	O	0.557022	0.125107	0.578004
	O5554	O	0.555600	0.375205	0.601685
	O5555	O	0.601345	0.041511	0.679273
	O5556	O	0.546240	0.041223	0.603316
	O5557	O	0.503842	0.041187	0.638885
	O5558	O	0.546271	0.209304	0.603376
	O5559	O	0.548111	0.291045	0.568716
	O5560	O	0.514419	0.290893	0.493312
	O5561	O	0.564724	0.209246	0.610666
	O5562	O	0.566362	0.290984	0.576387
	O5563	O	0.608730	0.290559	0.540774
	O5564	O	0.503881	0.209365	0.638989
	O5565	O	0.548163	0.459019	0.568586
	O5566	O	0.514426	0.458676	0.493285
	O5567	O	0.608822	0.459108	0.540944
	O5568	O	0.566412	0.459446	0.576570
	O5569	O	0.601363	0.209355	0.679172
	O5570	O	0.494452	0.375179	0.640502
	O5571	O	0.618160	0.125167	0.539340
	C5572	C	0.586556	0.214203	0.652047
	C5573	C	0.590247	0.125153	0.659131
	C5574	C	0.586464	0.036149	0.652249
	C5575	C	0.579177	0.036053	0.638616
	C5576	C	0.575497	0.125136	0.631508
	C5577	C	0.579264	0.214124	0.638407
	C5578	C	0.567727	0.125208	0.616523
	C5579	C	0.598190	0.125318	0.673651
	C5580	C	0.542692	0.125251	0.606287
	C5581	C	0.533654	0.124918	0.614206
	C5582	C	0.529344	0.213907	0.617830
	C5583	C	0.520861	0.213825	0.624870
	C5584	C	0.516523	0.124723	0.628314
	C5585	C	0.520841	0.035603	0.624747
	C5586	C	0.529340	0.035660	0.617701
	C5587	C	0.507439	0.125034	0.636029
	C5588	C	0.545275	0.375039	0.562385
	C5589	C	0.538075	0.374886	0.546111
	C5590	C	0.534661	0.463733	0.538358
	C5591	C	0.527984	0.463517	0.523339
	C5592	C	0.524510	0.374649	0.515729
	C5593	C	0.527913	0.285789	0.523493
	C5594	C	0.534603	0.286038	0.538482
	C5595	C	0.517289	0.374754	0.499536
	C5596	C	0.569939	0.375296	0.573525
	C5597	C	0.579052	0.375415	0.565800
	C5598	C	0.583333	0.286024	0.562221
	C5599	C	0.591834	0.285770	0.555204
	C5600	C	0.596172	0.375053	0.551667
	C5601	C	0.591903	0.464385	0.555351
	C5602	C	0.583414	0.464559	0.562384
	C5603	C	0.605245	0.374959	0.543820
	H5604	H	0.595132	0.217194	0.552292
	H5605	H	0.580007	0.217063	0.565022
	H5606	H	0.589404	0.283279	0.657255
	H5607	H	0.576465	0.282983	0.632945
	H5608	H	0.557864	0.125138	0.565111
	H5609	H	0.554970	0.374877	0.614629
	H5610	H	0.495253	0.374595	0.627587
	H5611	H	0.617526	0.124967	0.552291
	H5612	H	0.537146	0.216892	0.544383
	H5613	H	0.525308	0.216665	0.517697
	H5614	H	0.517595	0.282778	0.627707
	H5615	H	0.532661	0.282871	0.615055
	H5616	H	0.525396	0.532372	0.517459
	H5617	H	0.537245	0.532737	0.544204
	H5618	H	0.532641	-0.033198	0.614774
	H5619	H	0.517521	-0.033080	0.627486
	H5620	H	0.576295	-0.032715	0.633461
	H5621	H	0.589270	-0.032611	0.657693
	H5622	H	0.580130	0.533554	0.565239
	H5623	H	0.595225	0.533069	0.552537
	Al5624	Al	0.548112	-0.500192	0.760631
	Al5625	Al	0.548162	-0.249262	0.760691
	Al5626	Al	0.493799	-0.249798	0.652429
	Al5627	Al	0.493749	-0.499854	0.652380
	O5628	O	0.558344	-0.459187	0.777319
	O5629	O	0.548146	-0.374714	0.748406
	O5630	O	0.548396	-0.124736	0.772929
	O5631	O	0.605500	-0.458631	0.779919
	O5632	O	0.538654	-0.459133	0.775937
	O5633	O	0.495051	-0.458527	0.807210
	O5634	O	0.538698	-0.290772	0.776041
	O5635	O	0.538860	-0.208604	0.741846
	O5636	O	0.502137	-0.208764	0.673364
	O5637	O	0.558335	-0.290981	0.777467
	O5638	O	0.557625	-0.209241	0.744870
	O5639	O	0.601195	-0.208517	0.713410
	O5640	O	0.495075	-0.290332	0.807365
	O5641	O	0.538865	-0.040572	0.741888
	O5642	O	0.502154	-0.040590	0.673283
	O5643	O	0.601225	-0.040612	0.713537
	O5644	O	0.557588	-0.040917	0.744797
	O5645	O	0.605475	-0.290341	0.780100
	O5646	O	0.485608	-0.124637	0.810866
	O5647	O	0.610890	-0.374156	0.710256
	C5648	C	0.586570	-0.284721	0.778304
	C5649	C	0.591375	-0.374596	0.778121
	C5650	C	0.586577	-0.464495	0.778301
	C5651	C	0.577241	-0.464544	0.778722
	C5652	C	0.572451	-0.374682	0.778967
	C5653	C	0.577247	-0.284774	0.778735
	C5654	C	0.562336	-0.374959	0.777960
	C5655	C	0.601489	-0.374639	0.779394
	C5656	C	0.535002	-0.374631	0.778634
	C5657	C	0.525657	-0.374497	0.785371
	C5658	C	0.521183	-0.284829	0.788291
	C5659	C	0.512422	-0.284929	0.794017
	C5660	C	0.507937	-0.374537	0.797056
	C5661	C	0.512409	-0.464146	0.794007
	C5662	C	0.521152	-0.464077	0.788227
	C5663	C	0.498687	-0.374441	0.804360
	C5664	C	0.535684	-0.124619	0.736370
	C5665	C	0.527755	-0.124569	0.721749
	C5666	C	0.523999	-0.035521	0.714840
	C5667	C	0.516706	-0.035428	0.701183
	C5668	C	0.512965	-0.124430	0.694156
	C5669	C	0.516686	-0.213475	0.701170
	C5670	C	0.523981	-0.213591	0.714833
	C5671	C	0.505204	-0.124529	0.679076
	C5672	C	0.561212	-0.124913	0.741948
	C5673	C	0.570470	-0.124832	0.734627
	C5674	C	0.574913	-0.214532	0.731487
	C5675	C	0.583672	-0.214172	0.725632
	C5676	C	0.588186	-0.124458	0.722921
	C5677	C	0.583713	-0.034908	0.725885
	C5678	C	0.574954	-0.035077	0.731693
	C5679	C	0.597530	-0.124555	0.716123
	H5680	H	0.587058	-0.283687	0.723237
	H5681	H	0.571521	-0.284388	0.733660
	H5682	H	0.590151	-0.214702	0.778121
	H5683	H	0.573630	-0.214694	0.778891
	H5684	H	0.548281	-0.374656	0.735182
	H5685	H	0.549019	-0.124744	0.786202
	H5686	H	0.485859	-0.125108	0.797701
	H5687	H	0.611539	-0.374499	0.723430
	H5688	H	0.526780	-0.282579	0.720231
	H5689	H	0.513877	-0.282617	0.695866
	H5690	H	0.509027	-0.215204	0.796263
	H5691	H	0.524618	-0.215441	0.786070
	H5692	H	0.513895	0.033571	0.695835
	H5693	H	0.526791	0.033522	0.720219
	H5694	H	0.524526	-0.533840	0.786015
	H5695	H	0.508994	-0.533792	0.796186
	H5696	H	0.573649	-0.534520	0.778915
	H5697	H	0.590191	-0.534444	0.778119
	H5698	H	0.571605	0.034640	0.734049
	H5699	H	0.587086	0.035050	0.723718
	Al5700	Al	0.548155	-0.000136	0.760672
	Al5701	Al	0.548164	0.251054	0.760755
	Al5702	Al	0.493787	0.250137	0.652340
	Al5703	Al	0.493779	0.000288	0.652323
	O5704	O	0.558386	0.041110	0.777295
	O5705	O	0.548131	0.125376	0.748485
	O5706	O	0.548436	0.375506	0.772878
	O5707	O	0.605444	0.040946	0.780221
	O5708	O	0.538758	0.041341	0.776239
	O5709	O	0.495058	0.040899	0.807022
	O5710	O	0.538743	0.209629	0.776173
	O5711	O	0.538825	0.291407	0.741943
	O5712	O	0.502147	0.291072	0.673346
	O5713	O	0.558327	0.209556	0.777494
	O5714	O	0.557595	0.290967	0.744803
	O5715	O	0.601219	0.291806	0.713493
	O5716	O	0.495067	0.209288	0.807141
	O5717	O	0.538836	0.459134	0.741834
	O5718	O	0.502141	0.459168	0.673286
	O5719	O	0.601190	0.460051	0.713503
	O5720	O	0.557556	0.459458	0.744667
	O5721	O	0.605476	0.209262	0.779980
	O5722	O	0.485605	0.375443	0.810837
	O5723	O	0.610915	0.125578	0.710359
	C5724	C	0.586594	0.215436	0.778102
	C5725	C	0.591370	0.125283	0.778103
	C5726	C	0.586585	0.035393	0.778395
	C5727	C	0.577251	0.035483	0.778786
	C5728	C	0.572468	0.125434	0.778918
	C5729	C	0.577257	0.215332	0.778533
	C5730	C	0.562347	0.125421	0.777885
	C5731	C	0.601486	0.125137	0.779438
	C5732	C	0.535073	0.125152	0.778785
	C5733	C	0.525733	0.125584	0.785499
	C5734	C	0.521205	0.215320	0.788274
	C5735	C	0.512432	0.215276	0.793913
	C5736	C	0.507957	0.125497	0.796978
	C5737	C	0.512430	0.035715	0.793915
	C5738	C	0.521218	0.035877	0.788253
	C5739	C	0.498663	0.125176	0.804175
	C5740	C	0.535681	0.375159	0.736313
	C5741	C	0.527741	0.375180	0.721742
	C5742	C	0.524007	0.464201	0.714746
	C5743	C	0.516719	0.464304	0.701090
	C5744	C	0.512952	0.375293	0.694112
	C5745	C	0.516635	0.286363	0.701228
	C5746	C	0.523919	0.286132	0.714877
	C5747	C	0.505213	0.375167	0.679062
	C5748	C	0.561187	0.375110	0.741817
	C5749	C	0.570461	0.375318	0.734568
	C5750	C	0.574968	0.285694	0.731576
	C5751	C	0.583722	0.285801	0.725857
	C5752	C	0.588210	0.375637	0.722973
	C5753	C	0.583698	0.465244	0.725880
	C5754	C	0.574933	0.465041	0.731614
	C5755	C	0.597537	0.375809	0.716135
	H5756	H	0.587126	0.216417	0.723585
	H5757	H	0.571567	0.215746	0.733839
	H5758	H	0.590238	0.285325	0.777964
	H5759	H	0.573679	0.285431	0.778764
	H5760	H	0.548339	0.125379	0.735240
	H5761	H	0.549165	0.375778	0.786030
	H5762	H	0.485738	0.375576	0.797613
	H5763	H	0.611694	0.125745	0.723426
	H5764	H	0.526685	0.217110	0.720245
	H5765	H	0.513793	0.217630	0.695874
	H5766	H	0.509012	0.284833	0.796101
	H5767	H	0.524543	0.285100	0.785939
	H5768	H	0.513970	0.533369	0.695652
	H5769	H	0.526877	0.532886	0.720033
	H5770	H	0.524644	-0.033557	0.785894
	H5771	H	0.509045	-0.034028	0.796070
	H5772	H	0.573673	-0.034438	0.779194
	H5773	H	0.590171	-0.034789	0.778474
	H5774	H	0.571528	0.534557	0.733915
	H5775	H	0.587085	0.534647	0.723647
	Al5776	Al	0.553590	-0.500175	0.857682
	Al5777	Al	0.553586	-0.250336	0.857658
	Al5778	Al	0.485602	-0.249801	0.823226
	Al5779	Al	0.485630	-0.499180	0.823132
	O5780	O	0.564205	-0.459014	0.873051
	O5781	O	0.552964	-0.375494	0.845324
	O5782	O	0.554265	-0.125157	0.870057
	O5783	O	0.611333	-0.459320	0.874945
	O5784	O	0.544526	-0.459715	0.874499
	O5785	O	0.500167	-0.459491	0.903379
	O5786	O	0.544574	-0.291621	0.874675
	O5787	O	0.542938	-0.209455	0.842670
	O5788	O	0.495821	-0.208561	0.839961
	O5789	O	0.564242	-0.290690	0.872667
	O5790	O	0.562586	-0.208519	0.840589
	O5791	O	0.607092	-0.208966	0.812260
	O5792	O	0.500214	-0.291355	0.903533
	O5793	O	0.543013	-0.041309	0.842408
	O5794	O	0.495846	-0.040255	0.839657
	O5795	O	0.607076	-0.040734	0.812332
	O5796	O	0.562664	-0.040569	0.840778
	O5797	O	0.611339	-0.290844	0.875066
	O5798	O	0.490418	-0.125581	0.908117
	O5799	O	0.616770	-0.375266	0.807484
	C5800	C	0.592461	-0.284656	0.873711
	C5801	C	0.597237	-0.374788	0.873362
	C5802	C	0.592429	-0.464785	0.873556
	C5803	C	0.583103	-0.464832	0.874143
	C5804	C	0.578320	-0.374757	0.874444
	C5805	C	0.583122	-0.284622	0.874247
	C5806	C	0.568203	-0.374820	0.873454
	C5807	C	0.607349	-0.375144	0.874423
	C5808	C	0.540857	-0.375592	0.877232
	C5809	C	0.531393	-0.375698	0.883886
	C5810	C	0.526831	-0.285747	0.886600
	C5811	C	0.517918	-0.285617	0.891520
	C5812	C	0.513312	-0.375300	0.894046
	C5813	C	0.517870	-0.465272	0.891353
	C5814	C	0.526777	-0.465411	0.886389
	C5815	C	0.503860	-0.375424	0.900689
	C5816	C	0.538988	-0.125174	0.841909
	C5817	C	0.528852	-0.124992	0.840719
	C5818	C	0.524080	-0.034906	0.840768
	C5819	C	0.514748	-0.034636	0.841195
	C5820	C	0.509947	-0.124393	0.841475
	C5821	C	0.514708	-0.214483	0.841216
	C5822	C	0.524039	-0.214652	0.840792
	C5823	C	0.499816	-0.124469	0.840408
	C5824	C	0.566318	-0.124764	0.837998
	C5825	C	0.575762	-0.124786	0.831291
	C5826	C	0.580346	-0.214567	0.828644
	C5827	C	0.589269	-0.214525	0.823827
	C5828	C	0.593904	-0.124913	0.821399
	C5829	C	0.589307	-0.035125	0.823936
	C5830	C	0.580377	-0.035140	0.828757
	C5831	C	0.603363	-0.124887	0.814861
	H5832	H	0.592695	-0.284763	0.821901
	H5833	H	0.576908	-0.284509	0.830462
	H5834	H	0.596081	-0.214376	0.873535
	H5835	H	0.579539	-0.214582	0.874466
	H5836	H	0.552089	-0.375330	0.832018
	H5837	H	0.555405	-0.125035	0.883223
	H5838	H	0.489446	-0.125909	0.894980
	H5839	H	0.617634	-0.375858	0.820697
	H5840	H	0.527631	-0.284710	0.840601
	H5841	H	0.511118	-0.284533	0.841434
	H5842	H	0.514505	-0.215558	0.893545
	H5843	H	0.530323	-0.215703	0.884953
	H5844	H	0.511125	0.035334	0.841334
	H5845	H	0.527676	0.034917	0.840583
	H5846	H	0.530219	-0.535415	0.884542
	H5847	H	0.514447	-0.535273	0.893219
	H5848	H	0.579488	-0.534969	0.874263
	H5849	H	0.596027	-0.534935	0.873244
	H5850	H	0.576949	0.034932	0.830676
	H5851	H	0.592749	0.034781	0.822147
	Al5852	Al	0.553572	-0.000410	0.857626
	Al5853	Al	0.553600	0.249795	0.857771
	Al5854	Al	0.485605	0.249748	0.823002
	Al5855	Al	0.485631	0.000855	0.822981
	O5856	O	0.564196	0.040655	0.872812
	O5857	O	0.552970	0.124947	0.845312
	O5858	O	0.554272	0.374898	0.870065
	O5859	O	0.611358	0.040507	0.874985
	O5860	O	0.544539	0.040676	0.874541
	O5861	O	0.500156	0.040500	0.903332
	O5862	O	0.544605	0.208705	0.874792
	O5863	O	0.542935	0.289882	0.842712
	O5864	O	0.495815	0.290870	0.839827
	O5865	O	0.564203	0.209055	0.872766
	O5866	O	0.562640	0.290802	0.840775
	O5867	O	0.607021	0.290704	0.812066
	O5868	O	0.500170	0.208611	0.903407
	O5869	O	0.542999	0.458191	0.842420
	O5870	O	0.495850	0.459210	0.839717
	O5871	O	0.607019	0.458904	0.812055
	O5872	O	0.562668	0.459028	0.840813
	O5873	O	0.611328	0.209043	0.875058
	O5874	O	0.490474	0.374312	0.907972
	O5875	O	0.616740	0.125075	0.807561
	C5876	C	0.592461	0.214736	0.873708
	C5877	C	0.597243	0.124615	0.873375
	C5878	C	0.592441	0.034585	0.873590
	C5879	C	0.583115	0.034559	0.874140
	C5880	C	0.578326	0.124563	0.874487
	C5881	C	0.583129	0.214564	0.874265
	C5882	C	0.568201	0.124738	0.873422
	C5883	C	0.607372	0.124663	0.874477
	C5884	C	0.540852	0.124544	0.877261
	C5885	C	0.531445	0.124769	0.884018
	C5886	C	0.526846	0.214361	0.886626
	C5887	C	0.517924	0.214050	0.891531
	C5888	C	0.513274	0.124281	0.893946
	C5889	C	0.517867	0.034695	0.891287
	C5890	C	0.526798	0.034858	0.886382
	C5891	C	0.503866	0.124519	0.900725
	C5892	C	0.538970	0.374304	0.841952
	C5893	C	0.528862	0.374324	0.840661
	C5894	C	0.524074	0.464199	0.840716
	C5895	C	0.514741	0.464505	0.841118
	C5896	C	0.509939	0.374739	0.841389
	C5897	C	0.514725	0.284741	0.841248
	C5898	C	0.524049	0.284509	0.840843
	C5899	C	0.499840	0.374849	0.840336
	C5900	C	0.566352	0.374829	0.838167
	C5901	C	0.575787	0.374813	0.831441
	C5902	C	0.580381	0.285087	0.828898
	C5903	C	0.589306	0.285105	0.823978
	C5904	C	0.593897	0.375013	0.821443
	C5905	C	0.589298	0.464842	0.823985
	C5906	C	0.580373	0.464793	0.828870
	C5907	C	0.603341	0.374930	0.814769
	H5908	H	0.592712	0.215138	0.822026
	H5909	H	0.576944	0.214920	0.830693
	H5910	H	0.596079	0.284754	0.873435
	H5911	H	0.579509	0.284588	0.874442
	H5912	H	0.552223	0.124727	0.832226
	H5913	H	0.555390	0.375089	0.883224
	H5914	H	0.489769	0.373992	0.894831
	H5915	H	0.617577	0.125067	0.820786
	H5916	H	0.527635	0.214445	0.840683
	H5917	H	0.511091	0.214704	0.841491
	H5918	H	0.514531	0.284318	0.893592
	H5919	H	0.530296	0.284626	0.884788
	H5920	H	0.511185	0.534689	0.841250
	H5921	H	0.527702	0.534253	0.840480
	H5922	H	0.530193	-0.035124	0.884341
	H5923	H	0.514434	-0.035343	0.893094
	H5924	H	0.579516	-0.035551	0.874205
	H5925	H	0.596048	-0.035429	0.873176
	H5926	H	0.576943	0.534806	0.830648
	H5927	H	0.592718	0.535244	0.821967
	Al5928	Al	0.559529	-0.500496	0.952651
	Al5929	Al	0.559536	-0.250345	0.952605
	Al5930	Al	0.491152	-0.250455	0.920463
	Al5931	Al	0.491160	-0.500508	0.920370
	O5932	O	0.570190	-0.459442	0.967701
	O5933	O	0.558835	-0.375325	0.940228
	O5934	O	0.560221	-0.125279	0.964928
	O5935	O	0.617325	-0.459280	0.969857
	O5936	O	0.550494	-0.459659	0.969676
	O5937	O	0.506073	-0.460533	0.998408
	O5938	O	0.550445	-0.291441	0.969623
	O5939	O	0.548909	-0.209439	0.937600
	O5940	O	0.501787	-0.209296	0.935494
	O5941	O	0.570182	-0.291369	0.967779
	O5942	O	0.568545	-0.209553	0.935507
	O5943	O	0.613048	-0.208937	0.907284
	O5944	O	0.506008	-0.292257	0.998153
	O5945	O	0.548920	-0.041171	0.937467
	O5946	O	0.501770	-0.040725	0.935449
	O5947	O	0.613004	-0.040858	0.907205
	O5948	O	0.568574	-0.041369	0.935631
	O5949	O	0.617311	-0.291219	0.970215
	O5950	O	0.496383	-0.125879	1.002836
	O5951	O	0.622657	-0.375002	0.902370
	C5952	C	0.598420	-0.285411	0.968716
	C5953	C	0.603214	-0.375429	0.968443
	C5954	C	0.598408	-0.465405	0.968563
	C5955	C	0.589097	-0.465216	0.969108
	C5956	C	0.584312	-0.375207	0.969443
	C5957	C	0.589093	-0.285185	0.969251
	C5958	C	0.574171	-0.375275	0.968310
	C5959	C	0.613339	-0.375294	0.969513
	C5960	C	0.546781	-0.375552	0.972284
	C5961	C	0.537274	-0.375916	0.978835
	C5962	C	0.532676	-0.286170	0.981390
	C5963	C	0.523749	-0.286450	0.986217
	C5964	C	0.519171	-0.376408	0.988845
	C5965	C	0.523798	-0.466080	0.986367
	C5966	C	0.532720	-0.465880	0.981502
	C5967	C	0.509718	-0.376268	0.995528
	C5968	C	0.544921	-0.125309	0.936899
	C5969	C	0.534805	-0.125101	0.935939
	C5970	C	0.530020	-0.034959	0.936138
	C5971	C	0.520686	-0.034818	0.936672
	C5972	C	0.515893	-0.124899	0.937000
	C5973	C	0.520679	-0.215116	0.936888
	C5974	C	0.530008	-0.215185	0.936289
	C5975	C	0.505762	-0.124925	0.935970
	C5976	C	0.572267	-0.125515	0.932946
	C5977	C	0.581709	-0.125627	0.926356
	C5978	C	0.586356	-0.215241	0.923963
	C5979	C	0.595283	-0.215042	0.919064
	C5980	C	0.599854	-0.125118	0.916458
	C5981	C	0.595237	-0.035487	0.919006
	C5982	C	0.586299	-0.035563	0.923863
	C5983	C	0.609308	-0.124990	0.909878
	H5984	H	0.598697	-0.285229	0.917197
	H5985	H	0.582922	-0.285519	0.925829
	H5986	H	0.602035	-0.215404	0.968495
	H5987	H	0.585511	-0.215249	0.969547
	H5988	H	0.557823	-0.375465	0.927054
	H5989	H	0.561291	-0.125191	0.978031
	H5990	H	0.495352	-0.125801	0.989652
	H5991	H	0.623690	-0.375454	0.915522
	H5992	H	0.533586	-0.285532	0.936221
	H5993	H	0.517061	-0.285062	0.937352
	H5994	H	0.520285	-0.216155	0.988108
	H5995	H	0.536106	-0.215802	0.979650
	H5996	H	0.517108	0.035331	0.936955
	H5997	H	0.533660	0.035125	0.935935
	H5998	H	0.536202	-0.535987	0.979833
	H5999	H	0.520406	-0.536288	0.988321
	H6000	H	0.585483	-0.535388	0.969251
	H6001	H	0.601997	-0.535491	0.968275
	H6002	H	0.582865	0.034459	0.925645
	H6003	H	0.598682	0.034668	0.917072
	Al6004	Al	0.559543	-0.000299	0.952654
	Al6005	Al	0.559579	0.249365	0.952838
	Al6006	Al	0.491123	0.249247	0.920375
	Al6007	Al	0.491131	-0.000301	0.920376
	O6008	O	0.570252	0.040000	0.967540
	O6009	O	0.558852	0.124770	0.940370
	O6010	O	0.560250	0.374698	0.965081
	O6011	O	0.617327	0.039907	0.970196
	O6012	O	0.550451	0.040298	0.969649
	O6013	O	0.506069	0.039634	0.998200
	O6014	O	0.550532	0.208395	0.969870
	O6015	O	0.548920	0.290176	0.937714
	O6016	O	0.501751	0.290133	0.935489
	O6017	O	0.570268	0.208533	0.967652
	O6018	O	0.568596	0.290485	0.935823
	O6019	O	0.613003	0.291034	0.907219
	O6020	O	0.506028	0.207778	0.998139
	O6021	O	0.548899	0.458551	0.937550
	O6022	O	0.501807	0.458591	0.935343
	O6023	O	0.612905	0.459105	0.906914
	O6024	O	0.568611	0.458576	0.935861
	O6025	O	0.617372	0.208191	0.969927
	O6026	O	0.496377	0.374075	1.002898
	O6027	O	0.622716	0.124921	0.902379
	C6028	C	0.598475	0.214444	0.968513
	C6029	C	0.603255	0.124338	0.968319
	C6030	C	0.598471	0.034175	0.968343
	C6031	C	0.589132	0.034233	0.968839
	C6032	C	0.584354	0.124359	0.969266
	C6033	C	0.589147	0.214341	0.968984
	C6034	C	0.574258	0.124146	0.968050
	C6035	C	0.613351	0.124234	0.969468
	C6036	C	0.546794	0.124364	0.972388
	C6037	C	0.537348	0.124087	0.979042
	C6038	C	0.532723	0.213713	0.981548
	C6039	C	0.523809	0.213552	0.986408
	C6040	C	0.519222	0.123690	0.989031
	C6041	C	0.523842	0.033943	0.986528
	C6042	C	0.532766	0.034049	0.981643
	C6043	C	0.509757	0.123690	0.995572
	C6044	C	0.544922	0.374220	0.937118
	C6045	C	0.534810	0.373885	0.935963
	C6046	C	0.530024	0.463875	0.936216
	C6047	C	0.520680	0.464066	0.936745
	C6048	C	0.515884	0.374221	0.937017
	C6049	C	0.520674	0.284162	0.936803
	C6050	C	0.530007	0.283901	0.936289
	C6051	C	0.505771	0.374189	0.935874
	C6052	C	0.572286	0.374520	0.933121
	C6053	C	0.581721	0.374715	0.926447
	C6054	C	0.586334	0.284818	0.923884
	C6055	C	0.595260	0.284764	0.919006
	C6056	C	0.599837	0.374667	0.916333
	C6057	C	0.595241	0.464649	0.918894
	C6058	C	0.586320	0.464684	0.923823
	C6059	C	0.609268	0.375168	0.909827
	H6060	H	0.598720	0.214537	0.917182
	H6061	H	0.582908	0.214588	0.925764
	H6062	H	0.602067	0.284634	0.968539
	H6063	H	0.585553	0.284532	0.969337
	H6064	H	0.557830	0.125553	0.927205
	H6065	H	0.561194	0.374832	0.978196
	H6066	H	0.495511	0.374215	0.989707
	H6067	H	0.623724	0.125220	0.915642
	H6068	H	0.533586	0.214111	0.936029
	H6069	H	0.517081	0.213949	0.937000
	H6070	H	0.520365	0.283633	0.988192
	H6071	H	0.536154	0.283850	0.979648
	H6072	H	0.517077	0.534051	0.936876
	H6073	H	0.533606	0.533978	0.935891
	H6074	H	0.536212	-0.035942	0.979840
	H6075	H	0.520387	-0.036040	0.988357
	H6076	H	0.585520	-0.035634	0.969091
	H6077	H	0.602076	-0.035986	0.968188
	H6078	H	0.582852	0.534546	0.925657
	H6079	H	0.598666	0.534957	0.917052
	Al6080	Al	0.696355	-0.499495	0.017333
	Al6081	Al	0.696390	-0.249466	0.017384
	Al6082	Al	0.627992	-0.250185	-0.014891
	Al6083	Al	0.627946	-0.500411	-0.015051
	O6084	O	0.706954	-0.458673	0.032565
	O6085	O	0.695715	-0.374607	0.005019
	O6086	O	0.697041	-0.124496	0.029700
	O6087	O	0.754109	-0.458914	0.035062
	O6088	O	0.687322	-0.458598	0.034358
	O6089	O	0.642950	-0.459177	0.063038
	O6090	O	0.687309	-0.290601	0.034259
	O6091	O	0.685780	-0.208409	0.002115
	O6092	O	0.638644	-0.209546	0.000093
	O6093	O	0.706984	-0.290579	0.032610
	O6094	O	0.705425	-0.208940	0.000376
	O6095	O	0.749769	-0.208974	-0.028341
	O6096	O	0.642885	-0.291178	0.062775
	O6097	O	0.685727	-0.040219	0.002276
	O6098	O	0.638625	-0.041242	0.000301
	O6099	O	0.749796	-0.040808	-0.028218
	O6100	O	0.705383	-0.040794	0.000335
	O6101	O	0.754081	-0.290346	0.035136
	O6102	O	0.633239	-0.124823	0.067421
	O6103	O	0.759537	-0.373640	-0.032894
	C6104	C	0.735223	-0.284816	0.033654
	C6105	C	0.740005	-0.374790	0.033409
	C6106	C	0.735222	-0.464616	0.033826
	C6107	C	0.725881	-0.464541	0.034359
	C6108	C	0.721097	-0.374597	0.034421
	C6109	C	0.725884	-0.284653	0.034196
	C6110	C	0.710967	-0.374689	0.033217
	C6111	C	0.750122	-0.374658	0.034507
	C6112	C	0.683618	-0.374578	0.036945
	C6113	C	0.674185	-0.374480	0.043628
	C6114	C	0.669600	-0.284627	0.046226
	C6115	C	0.660662	-0.284782	0.051197
	C6116	C	0.656077	-0.374677	0.053707
	C6117	C	0.660663	-0.464383	0.051161
	C6118	C	0.669590	-0.464251	0.046213
	C6119	C	0.646644	-0.375209	0.060321
	C6120	C	0.681749	-0.124377	0.001672
	C6121	C	0.671637	-0.124757	0.000604
	C6122	C	0.666851	-0.035034	0.000986
	C6123	C	0.657529	-0.035185	0.001567
	C6124	C	0.652741	-0.125162	0.001699
	C6125	C	0.657524	-0.214894	0.001339
	C6126	C	0.666844	-0.214705	0.000770
	C6127	C	0.642632	-0.125299	0.000723
	C6128	C	0.709120	-0.124750	-0.002221
	C6129	C	0.718566	-0.124595	-0.008778
	C6130	C	0.723154	-0.214444	-0.011392
	C6131	C	0.732070	-0.214564	-0.016302
	C6132	C	0.736692	-0.124782	-0.018822
	C6133	C	0.732105	-0.034944	-0.016190
	C6134	C	0.723190	-0.034756	-0.011277
	C6135	C	0.746093	-0.124848	-0.025487
	H6136	H	0.735477	-0.284801	-0.018352
	H6137	H	0.719652	-0.284624	-0.009729
	H6138	H	0.738813	-0.214859	0.033307
	H6139	H	0.722300	-0.214629	0.034295
	H6140	H	0.694840	-0.374171	-0.008296
	H6141	H	0.697952	-0.124518	0.042914
	H6142	H	0.632322	-0.124767	0.054186
	H6143	H	0.760353	-0.372837	-0.019614
	H6144	H	0.670408	-0.284781	0.000535
	H6145	H	0.653918	-0.284797	0.001553
	H6146	H	0.657254	-0.214550	0.053162
	H6147	H	0.673016	-0.214063	0.044357
	H6148	H	0.653961	0.035085	0.001938
	H6149	H	0.670471	0.034950	0.000899
	H6150	H	0.673003	-0.534526	0.044270
	H6151	H	0.657246	-0.534802	0.053031
	H6152	H	0.722273	-0.534655	0.034592
	H6153	H	0.738797	-0.534805	0.033669
	H6154	H	0.719733	0.035358	-0.009552
	H6155	H	0.735541	0.035244	-0.018186
	Al6156	Al	0.696369	0.000567	0.017348
	Al6157	Al	0.696392	0.250761	0.017366
	Al6158	Al	0.627993	0.249774	-0.014876
	Al6159	Al	0.627987	-0.000354	-0.014896
	O6160	O	0.707001	0.041186	0.032510
	O6161	O	0.695703	0.125265	0.005023
	O6162	O	0.697043	0.375558	0.029723
	O6163	O	0.754123	0.041064	0.035182
	O6164	O	0.687334	0.041367	0.034390
	O6165	O	0.642909	0.041007	0.062776
	O6166	O	0.687291	0.209504	0.034275
	O6167	O	0.685753	0.291225	0.002293
	O6168	O	0.638615	0.290895	0.000112
	O6169	O	0.706998	0.209327	0.032481
	O6170	O	0.705419	0.291760	0.000371
	O6171	O	0.749870	0.291870	-0.028079
	O6172	O	0.642864	0.209098	0.062762
	O6173	O	0.685742	0.459192	0.002235
	O6174	O	0.638632	0.458941	0.000055
	O6175	O	0.749878	0.460012	-0.028114
	O6176	O	0.705400	0.459846	0.000318
	O6177	O	0.754155	0.209365	0.035062
	O6178	O	0.633189	0.375008	0.067501
	O6179	O	0.759505	0.125039	-0.032815
	C6180	C	0.735234	0.215297	0.033678
	C6181	C	0.740040	0.125404	0.033554
	C6182	C	0.735245	0.035522	0.033884
	C6183	C	0.725914	0.035528	0.034289
	C6184	C	0.721103	0.125324	0.034436
	C6185	C	0.725902	0.215290	0.034117
	C6186	C	0.710984	0.125357	0.033105
	C6187	C	0.750156	0.125344	0.034574
	C6188	C	0.683627	0.125422	0.037063
	C6189	C	0.674184	0.125458	0.043607
	C6190	C	0.669594	0.215319	0.046203
	C6191	C	0.660676	0.215450	0.051063
	C6192	C	0.656059	0.125506	0.053637
	C6193	C	0.660657	0.035630	0.051057
	C6194	C	0.669569	0.035574	0.046187
	C6195	C	0.646590	0.125333	0.060101
	C6196	C	0.681739	0.375192	0.001673
	C6197	C	0.671633	0.375538	0.000559
	C6198	C	0.666825	0.465344	0.000831
	C6199	C	0.657512	0.465146	0.001427
	C6200	C	0.652728	0.375167	0.001674
	C6201	C	0.657530	0.285415	0.001460
	C6202	C	0.666847	0.285645	0.000833
	C6203	C	0.642625	0.374986	0.000639
	C6204	C	0.709098	0.375825	-0.002379
	C6205	C	0.718563	0.375765	-0.008968
	C6206	C	0.723137	0.285880	-0.011603
	C6207	C	0.732053	0.285891	-0.016438
	C6208	C	0.736679	0.375691	-0.018934
	C6209	C	0.732088	0.465509	-0.016349
	C6210	C	0.723175	0.465538	-0.011472
	C6211	C	0.746167	0.375873	-0.025458
	H6212	H	0.735499	0.215689	-0.018322
	H6213	H	0.719673	0.215614	-0.009826
	H6214	H	0.738847	0.285219	0.033379
	H6215	H	0.722309	0.285375	0.034128
	H6216	H	0.694552	0.125867	-0.008076
	H6217	H	0.697892	0.375770	0.042866
	H6218	H	0.632233	0.374736	0.054283
	H6219	H	0.760443	0.124826	-0.019632
	H6220	H	0.670461	0.215901	0.000586
	H6221	H	0.653942	0.215072	0.001704
	H6222	H	0.657225	0.285736	0.052843
	H6223	H	0.673038	0.285469	0.044284
	H6224	H	0.653869	0.535074	0.001635
	H6225	H	0.670392	0.535724	0.000576
	H6226	H	0.673007	-0.034632	0.044285
	H6227	H	0.657191	-0.034543	0.052813
	H6228	H	0.722318	-0.034648	0.034470
	H6229	H	0.738856	-0.034701	0.033745
	H6230	H	0.719735	0.535777	-0.009562
	H6231	H	0.735515	0.535686	-0.018195
	Al6232	Al	0.701839	-0.499456	0.114286
	Al6233	Al	0.701846	-0.250256	0.114135
	Al6234	Al	0.633900	-0.249911	0.079798
	Al6235	Al	0.633877	-0.499776	0.079850
	O6236	O	0.711117	-0.459016	0.133075
	O6237	O	0.701564	-0.374761	0.102033
	O6238	O	0.701904	-0.124963	0.126486
	O6239	O	0.747858	-0.458920	0.201470
	O6240	O	0.692420	-0.458337	0.130225
	O6241	O	0.648765	-0.458755	0.161193
	O6242	O	0.692396	-0.290094	0.130096
	O6243	O	0.691604	-0.208723	0.097599
	O6244	O	0.644510	-0.208963	0.094939
	O6245	O	0.711135	-0.291165	0.132966
	O6246	O	0.711267	-0.209290	0.098713
	O6247	O	0.754912	-0.208748	0.067705
	O6248	O	0.648772	-0.290508	0.161171
	O6249	O	0.691574	-0.040239	0.097749
	O6250	O	0.644523	-0.040658	0.094917
	O6251	O	0.754924	-0.040202	0.067693
	O6252	O	0.711275	-0.040847	0.098805
	O6253	O	0.747893	-0.290689	0.201359
	O6254	O	0.639076	-0.125034	0.164623
	O6255	O	0.764291	-0.374614	0.064011
	C6256	C	0.733369	-0.285987	0.173535
	C6257	C	0.737027	-0.374900	0.180676
	C6258	C	0.733288	-0.463882	0.173712
	C6259	C	0.725969	-0.464109	0.160066
	C6260	C	0.722232	-0.375047	0.153112
	C6261	C	0.726060	-0.286053	0.159899
	C6262	C	0.714263	-0.375021	0.138613
	C6263	C	0.744795	-0.374696	0.195632
	C6264	C	0.688788	-0.374204	0.133062
	C6265	C	0.679526	-0.374524	0.140259
	C6266	C	0.675045	-0.284802	0.143198
	C6267	C	0.666278	-0.284712	0.148877
	C6268	C	0.661784	-0.374377	0.151742
	C6269	C	0.666260	-0.464117	0.148828
	C6270	C	0.675035	-0.464271	0.143167
	C6271	C	0.652464	-0.374821	0.158560
	C6272	C	0.687601	-0.124589	0.097110
	C6273	C	0.677491	-0.124662	0.096025
	C6274	C	0.672714	-0.034703	0.096245
	C6275	C	0.663380	-0.034766	0.096671
	C6276	C	0.658607	-0.124868	0.096807
	C6277	C	0.663391	-0.214881	0.096723
	C6278	C	0.672719	-0.214691	0.096265
	C6279	C	0.648492	-0.124864	0.095580
	C6280	C	0.714931	-0.125094	0.096166
	C6281	C	0.724263	-0.125042	0.089353
	C6282	C	0.728771	-0.214694	0.086466
	C6283	C	0.737529	-0.214341	0.080709
	C6284	C	0.742015	-0.124516	0.077760
	C6285	C	0.737510	-0.034922	0.080736
	C6286	C	0.728744	-0.035216	0.086491
	C6287	C	0.751300	-0.124491	0.070529
	H6288	H	0.740930	-0.283961	0.078399
	H6289	H	0.725399	-0.284112	0.088722
	H6290	H	0.736184	-0.216786	0.178772
	H6291	H	0.723296	-0.216730	0.154515
	H6292	H	0.700817	-0.375279	0.088865
	H6293	H	0.701898	-0.125022	0.139669
	H6294	H	0.638311	-0.124898	0.151429
	H6295	H	0.764101	-0.374801	0.077244
	H6296	H	0.676302	-0.284612	0.096090
	H6297	H	0.659794	-0.284811	0.096981
	H6298	H	0.662884	-0.215137	0.151108
	H6299	H	0.678450	-0.215014	0.140978
	H6300	H	0.659766	0.035290	0.096854
	H6301	H	0.676330	0.035370	0.096062
	H6302	H	0.678428	-0.533886	0.140925
	H6303	H	0.662858	-0.533768	0.151035
	H6304	H	0.723141	-0.533434	0.154790
	H6305	H	0.736086	-0.532918	0.179039
	H6306	H	0.725345	0.033952	0.088848
	H6307	H	0.740913	0.034797	0.078525
	Al6308	Al	0.701887	0.000565	0.114296
	Al6309	Al	0.701820	0.249700	0.114064
	Al6310	Al	0.633866	0.250235	0.079874
	Al6311	Al	0.633865	0.000088	0.079689
	O6312	O	0.711112	0.040979	0.133013
	O6313	O	0.701596	0.124960	0.102019
	O6314	O	0.701784	0.375041	0.126448
	O6315	O	0.747811	0.041324	0.201417
	O6316	O	0.692477	0.041361	0.130289
	O6317	O	0.648831	0.040975	0.161328
	O6318	O	0.692353	0.209585	0.129963
	O6319	O	0.691596	0.291384	0.097488
	O6320	O	0.644511	0.290580	0.094908
	O6321	O	0.711145	0.209385	0.132896
	O6322	O	0.711229	0.291230	0.098680
	O6323	O	0.754954	0.290827	0.067692
	O6324	O	0.648745	0.209328	0.161171
	O6325	O	0.691576	0.459774	0.097697
	O6326	O	0.644460	0.458949	0.095093
	O6327	O	0.754938	0.459134	0.067658
	O6328	O	0.711282	0.459572	0.098832
	O6329	O	0.747838	0.209857	0.201424
	O6330	O	0.639105	0.375326	0.164537
	O6331	O	0.764403	0.125279	0.064034
	C6332	C	0.733304	0.214300	0.173502
	C6333	C	0.736986	0.125208	0.180607
	C6334	C	0.733220	0.036070	0.173704
	C6335	C	0.725918	0.036090	0.160089
	C6336	C	0.722225	0.125206	0.153053
	C6337	C	0.726008	0.214377	0.159858
	C6338	C	0.714274	0.125517	0.138524
	C6339	C	0.744783	0.125637	0.195635
	C6340	C	0.688810	0.125361	0.132990
	C6341	C	0.679540	0.125488	0.140283
	C6342	C	0.675032	0.215246	0.143151
	C6343	C	0.666275	0.215011	0.148905
	C6344	C	0.661799	0.125296	0.151902
	C6345	C	0.666327	0.035512	0.149189
	C6346	C	0.675081	0.035750	0.143452
	C6347	C	0.652459	0.125368	0.158664
	C6348	C	0.687605	0.375539	0.097039
	C6349	C	0.677483	0.375392	0.095984
	C6350	C	0.672684	0.465202	0.096321
	C6351	C	0.663373	0.464932	0.096807
	C6352	C	0.658592	0.375029	0.096878
	C6353	C	0.663393	0.285243	0.096648
	C6354	C	0.672712	0.285422	0.096184
	C6355	C	0.648470	0.374857	0.095610
	C6356	C	0.714928	0.375456	0.096077
	C6357	C	0.724267	0.375115	0.089281
	C6358	C	0.728757	0.285281	0.086415
	C6359	C	0.737538	0.284964	0.080693
	C6360	C	0.742017	0.374823	0.077663
	C6361	C	0.737574	0.464689	0.080792
	C6362	C	0.728794	0.464901	0.086505
	C6363	C	0.751305	0.375050	0.070511
	H6364	H	0.740901	0.214960	0.078422
	H6365	H	0.725354	0.215812	0.088639
	H6366	H	0.736173	0.283378	0.178713
	H6367	H	0.723230	0.283281	0.154459
	H6368	H	0.700797	0.124489	0.088799
	H6369	H	0.701549	0.375124	0.139630
	H6370	H	0.638447	0.375100	0.151356
	H6371	H	0.764195	0.125677	0.077184
	H6372	H	0.676337	0.215605	0.095889
	H6373	H	0.659784	0.215481	0.096744
	H6374	H	0.662830	0.284518	0.150968
	H6375	H	0.678381	0.284948	0.140753
	H6376	H	0.659776	0.534917	0.097039
	H6377	H	0.676279	0.535483	0.096183
	H6378	H	0.678484	-0.034039	0.141238
	H6379	H	0.662938	-0.034330	0.151502
	H6380	H	0.723074	-0.032802	0.154842
	H6381	H	0.735997	-0.033103	0.179085
	H6382	H	0.725464	0.534355	0.088870
	H6383	H	0.740943	0.534498	0.078593
	Al6384	Al	0.693769	-0.499586	0.285067
	Al6385	Al	0.693717	-0.249269	0.285078
	Al6386	Al	0.639375	-0.249319	0.176816
	Al6387	Al	0.639381	-0.500027	0.176677
	O6388	O	0.701954	-0.458587	0.306163
	O6389	O	0.694411	-0.374479	0.273117
	O6390	O	0.693081	-0.124434	0.296851
	O6391	O	0.735646	-0.458572	0.381456
	O6392	O	0.683726	-0.459003	0.298537
	O6393	O	0.641296	-0.458998	0.333910
	O6394	O	0.683694	-0.290471	0.298486
	O6395	O	0.685401	-0.208515	0.264049
	O6396	O	0.648690	-0.208502	0.195605
	O6397	O	0.701973	-0.290563	0.306139
	O6398	O	0.703800	-0.208644	0.271602
	O6399	O	0.746136	-0.208942	0.235667
	O6400	O	0.641317	-0.290466	0.334102
	O6401	O	0.685458	-0.040274	0.264065
	O6402	O	0.648626	-0.040501	0.195583
	O6403	O	0.746154	-0.040648	0.235818
	O6404	O	0.703839	-0.040414	0.271559
	O6405	O	0.735693	-0.290581	0.381396
	O6406	O	0.632005	-0.124962	0.335726
	O6407	O	0.755540	-0.374503	0.234129
	C6408	C	0.722149	-0.285423	0.351345
	C6409	C	0.725574	-0.374543	0.358988
	C6410	C	0.722130	-0.463499	0.351329
	C6411	C	0.715431	-0.463570	0.336324
	C6412	C	0.712016	-0.374496	0.328661
	C6413	C	0.715446	-0.285627	0.336370
	C6414	C	0.704803	-0.374525	0.312393
	C6415	C	0.732818	-0.374638	0.375146
	C6416	C	0.680132	-0.374762	0.301329
	C6417	C	0.671030	-0.374516	0.309013
	C6418	C	0.666708	-0.285054	0.312506
	C6419	C	0.658215	-0.285168	0.319571
	C6420	C	0.653910	-0.374561	0.323143
	C6421	C	0.658219	-0.464000	0.319550
	C6422	C	0.666716	-0.464000	0.312512
	C6423	C	0.644837	-0.374794	0.330977
	C6424	C	0.682394	-0.124362	0.258242
	C6425	C	0.674610	-0.124208	0.243222
	C6426	C	0.670819	-0.034993	0.236423
	C6427	C	0.663503	-0.035031	0.222792
	C6428	C	0.659793	-0.124330	0.215699
	C6429	C	0.663572	-0.213683	0.222577
	C6430	C	0.670887	-0.213538	0.236196
	C6431	C	0.651821	-0.124255	0.201159
	C6432	C	0.707373	-0.124518	0.268614
	C6433	C	0.716405	-0.124787	0.260643
	C6434	C	0.720711	-0.213985	0.257183
	C6435	C	0.729201	-0.214204	0.250099
	C6436	C	0.733485	-0.125169	0.246432
	C6437	C	0.729155	-0.035973	0.249810
	C6438	C	0.720662	-0.035686	0.256894
	C6439	C	0.742584	-0.124786	0.238658
	H6440	H	0.732541	-0.282876	0.247435
	H6441	H	0.717433	-0.282559	0.260129
	H6442	H	0.724770	-0.216416	0.357149
	H6443	H	0.712871	-0.216398	0.330573
	H6444	H	0.695065	-0.374272	0.260060
	H6445	H	0.692534	-0.124288	0.309874
	H6446	H	0.632685	-0.125227	0.322786
	H6447	H	0.754806	-0.374762	0.247082
	H6448	H	0.673716	-0.282906	0.241474
	H6449	H	0.660761	-0.282985	0.217228
	H6450	H	0.654902	-0.216301	0.322365
	H6451	H	0.669998	-0.216057	0.309660
	H6452	H	0.660615	0.034246	0.217634
	H6453	H	0.673571	0.034225	0.241872
	H6454	H	0.670018	-0.532856	0.309618
	H6455	H	0.654905	-0.533136	0.322252
	H6456	H	0.712860	-0.532481	0.330409
	H6457	H	0.724713	-0.532451	0.357136
	H6458	H	0.717344	0.032876	0.259533
	H6459	H	0.732452	0.032520	0.246905
	Al6460	Al	0.693781	0.000520	0.284959
	Al6461	Al	0.693762	0.250448	0.285006
	Al6462	Al	0.639369	0.250754	0.176694
	Al6463	Al	0.639353	-0.000326	0.176757
	O6464	O	0.701971	0.041536	0.306132
	O6465	O	0.694429	0.125549	0.273200
	O6466	O	0.693094	0.375217	0.296959
	O6467	O	0.735636	0.041472	0.381500
	O6468	O	0.683678	0.041270	0.298246
	O6469	O	0.641355	0.041192	0.334125
	O6470	O	0.683658	0.209697	0.298286
	O6471	O	0.685407	0.291524	0.264143
	O6472	O	0.648701	0.290949	0.195407
	O6473	O	0.701961	0.209364	0.306143
	O6474	O	0.703845	0.291294	0.271600
	O6475	O	0.746221	0.291705	0.235956
	O6476	O	0.641350	0.209333	0.334148
	O6477	O	0.685361	0.459658	0.264249
	O6478	O	0.648676	0.458957	0.195529
	O6479	O	0.746165	0.459807	0.235751
	O6480	O	0.703800	0.459555	0.271574
	O6481	O	0.735664	0.209508	0.381500
	O6482	O	0.631972	0.375174	0.335623
	O6483	O	0.755523	0.125581	0.234137
	C6484	C	0.722125	0.215045	0.351436
	C6485	C	0.725577	0.125843	0.359039
	C6486	C	0.722144	0.037040	0.351328
	C6487	C	0.715480	0.036936	0.336294
	C6488	C	0.712035	0.125842	0.328624
	C6489	C	0.715439	0.214844	0.336401
	C6490	C	0.704828	0.125606	0.312375
	C6491	C	0.732799	0.125544	0.375229
	C6492	C	0.680102	0.125397	0.301167
	C6493	C	0.671023	0.125366	0.308905
	C6494	C	0.666714	0.214614	0.312506
	C6495	C	0.658245	0.214791	0.319611
	C6496	C	0.653925	0.125600	0.323127
	C6497	C	0.658241	0.036419	0.319567
	C6498	C	0.666718	0.036212	0.312482
	C6499	C	0.644899	0.125374	0.331130
	C6500	C	0.682327	0.375563	0.258392
	C6501	C	0.674529	0.375349	0.243418
	C6502	C	0.670802	0.464185	0.236357
	C6503	C	0.663516	0.464023	0.222664
	C6504	C	0.659774	0.374907	0.215659
	C6505	C	0.663518	0.286033	0.222678
	C6506	C	0.670801	0.286303	0.236368
	C6507	C	0.651832	0.374997	0.201076
	C6508	C	0.707359	0.375606	0.268553
	C6509	C	0.716409	0.375585	0.260619
	C6510	C	0.720763	0.286487	0.257240
	C6511	C	0.729262	0.286537	0.250250
	C6512	C	0.733548	0.375637	0.246555
	C6513	C	0.729192	0.464784	0.249888
	C6514	C	0.720685	0.464793	0.256874
	C6515	C	0.742626	0.375698	0.238788
	H6516	H	0.732597	0.217772	0.247642
	H6517	H	0.717485	0.217616	0.260157
	H6518	H	0.724671	0.284013	0.357370
	H6519	H	0.712807	0.283783	0.330586
	H6520	H	0.695096	0.125932	0.260251
	H6521	H	0.692240	0.374953	0.309877
	H6522	H	0.632697	0.374850	0.322589
	H6523	H	0.754832	0.125924	0.247067
	H6524	H	0.673631	0.217469	0.241656
	H6525	H	0.660694	0.216900	0.217432
	H6526	H	0.654947	0.283734	0.322520
	H6527	H	0.670031	0.283412	0.309767
	H6528	H	0.660704	0.533119	0.217322
	H6529	H	0.673629	0.533311	0.241593
	H6530	H	0.670018	-0.032577	0.309739
	H6531	H	0.654927	-0.032344	0.322450
	H6532	H	0.712914	-0.032066	0.330470
	H6533	H	0.724714	-0.031949	0.357201
	H6534	H	0.717359	0.533450	0.259554
	H6535	H	0.732472	0.533754	0.246997
	Al6536	Al	0.681330	-0.499726	0.465235
	Al6537	Al	0.681367	-0.249452	0.465238
	Al6538	Al	0.631257	-0.249965	0.347520
	Al6539	Al	0.631234	-0.499726	0.347418
	O6540	O	0.689677	-0.458567	0.486153
	O6541	O	0.682068	-0.374610	0.453396
	O6542	O	0.680687	-0.124517	0.477028
	O6543	O	0.726389	-0.457754	0.554619
	O6544	O	0.671288	-0.458868	0.478663
	O6545	O	0.628899	-0.458878	0.514051
	O6546	O	0.671322	-0.290484	0.478728
	O6547	O	0.673144	-0.208679	0.444173
	O6548	O	0.639452	-0.208748	0.368747
	O6549	O	0.689695	-0.290625	0.486118
	O6550	O	0.691449	-0.208736	0.451857
	O6551	O	0.733765	-0.208533	0.415964
	O6552	O	0.628922	-0.290406	0.514116
	O6553	O	0.673208	-0.040866	0.444027
	O6554	O	0.639450	-0.040891	0.368815
	O6555	O	0.733765	-0.039915	0.416038
	O6556	O	0.691428	-0.040266	0.451738
	O6557	O	0.726410	-0.289763	0.554595
	O6558	O	0.619514	-0.124741	0.515598
	O6559	O	0.743169	-0.374258	0.414450
	C6560	C	0.711509	-0.285417	0.527618
	C6561	C	0.715282	-0.374153	0.534540
	C6562	C	0.711524	-0.463021	0.527635
	C6563	C	0.704221	-0.462985	0.514001
	C6564	C	0.700485	-0.374230	0.506964
	C6565	C	0.704202	-0.285392	0.513975
	C6566	C	0.692720	-0.374553	0.491986
	C6567	C	0.723243	-0.373849	0.549036
	C6568	C	0.667761	-0.374669	0.481685
	C6569	C	0.658676	-0.374279	0.489440
	C6570	C	0.654389	-0.284882	0.493031
	C6571	C	0.645888	-0.284853	0.500029
	C6572	C	0.641565	-0.374253	0.503500
	C6573	C	0.645870	-0.463715	0.499964
	C6574	C	0.654374	-0.463758	0.492998
	C6575	C	0.632474	-0.374599	0.511178
	C6576	C	0.670293	-0.124794	0.437903
	C6577	C	0.663085	-0.124879	0.421629
	C6578	C	0.659666	-0.035705	0.413941
	C6579	C	0.652980	-0.035695	0.398889
	C6580	C	0.649522	-0.124742	0.391237
	C6581	C	0.652966	-0.213914	0.398851
	C6582	C	0.659651	-0.213945	0.413914
	C6583	C	0.642303	-0.124827	0.375034
	C6584	C	0.695002	-0.124425	0.448852
	C6585	C	0.704086	-0.124329	0.441064
	C6586	C	0.708393	-0.213492	0.437498
	C6587	C	0.716879	-0.213690	0.430425
	C6588	C	0.721189	-0.124433	0.426914
	C6589	C	0.716905	-0.035159	0.430588
	C6590	C	0.708419	-0.034996	0.437652
	C6591	C	0.730219	-0.124299	0.418927
	H6592	H	0.720130	-0.282456	0.427494
	H6593	H	0.705061	-0.281965	0.440295
	H6594	H	0.714311	-0.216394	0.532929
	H6595	H	0.701365	-0.216423	0.508651
	H6596	H	0.682877	-0.374607	0.440415
	H6597	H	0.679950	-0.124452	0.490019
	H6598	H	0.620313	-0.124146	0.502582
	H6599	H	0.742509	-0.374217	0.427456
	H6600	H	0.662189	-0.283425	0.419771
	H6601	H	0.650372	-0.283192	0.393013
	H6602	H	0.642623	-0.216158	0.502888
	H6603	H	0.657736	-0.216160	0.490303
	H6604	H	0.650391	0.033611	0.393092
	H6605	H	0.662244	0.033735	0.419802
	H6606	H	0.657686	-0.532737	0.490303
	H6607	H	0.642560	-0.532677	0.502738
	H6608	H	0.701407	-0.531759	0.508744
	H6609	H	0.714325	-0.531861	0.532922
	H6610	H	0.705155	0.033690	0.440566
	H6611	H	0.720241	0.033654	0.427778
	Al6612	Al	0.681369	0.000418	0.465137
	Al6613	Al	0.681372	0.250558	0.465144
	Al6614	Al	0.631294	0.250096	0.347478
	Al6615	Al	0.631300	0.000130	0.347635
	O6616	O	0.689739	0.041398	0.486079
	O6617	O	0.682062	0.125549	0.453246
	O6618	O	0.680688	0.375353	0.477113
	O6619	O	0.726362	0.041494	0.554799
	O6620	O	0.671324	0.041284	0.478556
	O6621	O	0.628951	0.041223	0.514266
	O6622	O	0.671318	0.209545	0.478565
	O6623	O	0.673151	0.291282	0.444026
	O6624	O	0.639452	0.291531	0.368688
	O6625	O	0.689735	0.209522	0.485983
	O6626	O	0.691427	0.291609	0.451792
	O6627	O	0.733754	0.291618	0.416063
	O6628	O	0.628971	0.209478	0.514223
	O6629	O	0.673151	0.459408	0.444064
	O6630	O	0.639497	0.459549	0.368578
	O6631	O	0.733794	0.460052	0.416114
	O6632	O	0.691404	0.459866	0.451801
	O6633	O	0.726383	0.209507	0.554822
	O6634	O	0.619540	0.375208	0.515611
	O6635	O	0.743167	0.125559	0.414541
	C6636	C	0.711521	0.214726	0.527691
	C6637	C	0.715275	0.126027	0.534670
	C6638	C	0.711509	0.037128	0.527757
	C6639	C	0.704235	0.036928	0.514056
	C6640	C	0.700527	0.125696	0.506955
	C6641	C	0.704244	0.214688	0.513992
	C6642	C	0.692809	0.125422	0.491822
	C6643	C	0.723226	0.125539	0.549206
	C6644	C	0.667765	0.125532	0.481507
	C6645	C	0.658686	0.125440	0.489349
	C6646	C	0.654381	0.214734	0.492972
	C6647	C	0.645893	0.214577	0.500052
	C6648	C	0.641595	0.125118	0.503524
	C6649	C	0.645894	0.035981	0.499902
	C6650	C	0.654373	0.036208	0.492807
	C6651	C	0.632508	0.125387	0.511285
	C6652	C	0.670290	0.375488	0.437779
	C6653	C	0.663070	0.375359	0.421580
	C6654	C	0.659660	0.464463	0.413897
	C6655	C	0.652986	0.464612	0.398841
	C6656	C	0.649524	0.375679	0.391153
	C6657	C	0.652923	0.286503	0.398881
	C6658	C	0.659596	0.286418	0.413913
	C6659	C	0.642335	0.375697	0.374863
	C6660	C	0.694986	0.375911	0.448899
	C6661	C	0.704059	0.376285	0.441105
	C6662	C	0.708381	0.286969	0.437638
	C6663	C	0.716867	0.286862	0.430574
	C6664	C	0.721169	0.376088	0.426954
	C6665	C	0.716851	0.465446	0.430398
	C6666	C	0.708363	0.465587	0.437485
	C6667	C	0.730223	0.375924	0.419046
	H6668	H	0.720189	0.217903	0.427795
	H6669	H	0.705053	0.218133	0.440391
	H6670	H	0.714349	0.283902	0.532985
	H6671	H	0.701473	0.283607	0.508574
	H6672	H	0.682842	0.125567	0.440286
	H6673	H	0.680216	0.375397	0.490162
	H6674	H	0.620211	0.375221	0.502620
	H6675	H	0.742485	0.125660	0.427504
	H6676	H	0.662143	0.217440	0.419769
	H6677	H	0.650309	0.217407	0.393065
	H6678	H	0.642593	0.282972	0.502918
	H6679	H	0.657656	0.283775	0.490151
	H6680	H	0.650423	0.533856	0.392992
	H6681	H	0.662274	0.533435	0.419710
	H6682	H	0.657690	-0.032479	0.489967
	H6683	H	0.642588	-0.033017	0.502545
	H6684	H	0.701439	-0.032088	0.508658
	H6685	H	0.714328	-0.031465	0.533068
	H6686	H	0.705026	0.534535	0.440191
	H6687	H	0.720131	0.534535	0.427509
	Al6688	Al	0.673202	-0.499900	0.635770
	Al6689	Al	0.673162	-0.249025	0.635857
	Al6690	Al	0.618817	-0.250130	0.527394
	Al6691	Al	0.618833	-0.499677	0.527459
	O6692	O	0.683377	-0.458385	0.652488
	O6693	O	0.673196	-0.374415	0.623575
	O6694	O	0.673463	-0.124340	0.647940
	O6695	O	0.730476	-0.459723	0.655245
	O6696	O	0.663719	-0.458878	0.651118
	O6697	O	0.620051	-0.458690	0.682090
	O6698	O	0.663758	-0.290572	0.651364
	O6699	O	0.663845	-0.208314	0.617226
	O6700	O	0.627196	-0.208962	0.548303
	O6701	O	0.683389	-0.290243	0.652418
	O6702	O	0.682613	-0.208353	0.619850
	O6703	O	0.726222	-0.208556	0.588801
	O6704	O	0.620098	-0.290428	0.682203
	O6705	O	0.663926	-0.040533	0.616870
	O6706	O	0.627200	-0.040838	0.548300
	O6707	O	0.726232	-0.040292	0.588952
	O6708	O	0.682615	-0.040094	0.619830
	O6709	O	0.730522	-0.291179	0.655079
	O6710	O	0.610661	-0.124310	0.685789
	O6711	O	0.735937	-0.374283	0.585556
	C6712	C	0.711644	-0.284990	0.653379
	C6713	C	0.716404	-0.375104	0.653145
	C6714	C	0.711586	-0.464853	0.653294
	C6715	C	0.702247	-0.464636	0.653789
	C6716	C	0.697492	-0.374448	0.654131
	C6717	C	0.702313	-0.284709	0.653871
	C6718	C	0.687390	-0.374215	0.653071
	C6719	C	0.726513	-0.375321	0.654546
	C6720	C	0.660059	-0.374766	0.653815
	C6721	C	0.650719	-0.374410	0.660507
	C6722	C	0.646242	-0.284736	0.663431
	C6723	C	0.637489	-0.284943	0.669166
	C6724	C	0.632976	-0.374644	0.672031
	C6725	C	0.637445	-0.464294	0.669017
	C6726	C	0.646200	-0.464173	0.663278
	C6727	C	0.623715	-0.374628	0.679325
	C6728	C	0.660756	-0.124476	0.611475
	C6729	C	0.652826	-0.124754	0.596831
	C6730	C	0.649127	-0.035724	0.589717
	C6731	C	0.641861	-0.035614	0.576000
	C6732	C	0.638067	-0.124637	0.569122
	C6733	C	0.641732	-0.213660	0.576335
	C6734	C	0.649003	-0.213816	0.590045
	C6735	C	0.630267	-0.124862	0.554109
	C6736	C	0.686268	-0.124268	0.617034
	C6737	C	0.695511	-0.124183	0.609807
	C6738	C	0.699958	-0.213877	0.606648
	C6739	C	0.708702	-0.213970	0.600883
	C6740	C	0.713245	-0.124493	0.598232
	C6741	C	0.708775	-0.034668	0.601148
	C6742	C	0.700020	-0.034534	0.606931
	C6743	C	0.722535	-0.124513	0.591378
	H6744	H	0.712045	-0.283833	0.598404
	H6745	H	0.696562	-0.283751	0.608786
	H6746	H	0.715243	-0.215079	0.653031
	H6747	H	0.698744	-0.214422	0.653992
	H6748	H	0.673338	-0.374632	0.610434
	H6749	H	0.674259	-0.124143	0.661116
	H6750	H	0.610936	-0.124161	0.672575
	H6751	H	0.736491	-0.374661	0.598710
	H6752	H	0.651738	-0.282619	0.595589
	H6753	H	0.638879	-0.282828	0.571106
	H6754	H	0.634121	-0.215266	0.671543
	H6755	H	0.649648	-0.215121	0.661305
	H6756	H	0.639104	0.033343	0.570462
	H6757	H	0.651974	0.033535	0.594967
	H6758	H	0.649608	-0.533721	0.660992
	H6759	H	0.634062	-0.533899	0.671334
	H6760	H	0.698626	-0.534374	0.653796
	H6761	H	0.715161	-0.535122	0.652902
	H6762	H	0.696654	0.035195	0.609305
	H6763	H	0.712171	0.034852	0.598841
	Al6764	Al	0.673176	0.000170	0.635762
	Al6765	Al	0.673196	0.251162	0.635753
	Al6766	Al	0.618853	0.249937	0.527509
	Al6767	Al	0.618835	0.000263	0.527453
	O6768	O	0.683368	0.041579	0.652541
	O6769	O	0.673207	0.125863	0.623484
	O6770	O	0.673453	0.375419	0.647995
	O6771	O	0.730513	0.041247	0.655162
	O6772	O	0.663682	0.041544	0.651117
	O6773	O	0.620093	0.041480	0.682212
	O6774	O	0.663738	0.209859	0.651078
	O6775	O	0.663880	0.291926	0.616990
	O6776	O	0.627135	0.291686	0.548458
	O6777	O	0.683422	0.210098	0.652460
	O6778	O	0.682676	0.291447	0.619953
	O6779	O	0.726236	0.291889	0.588989
	O6780	O	0.620092	0.209756	0.682367
	O6781	O	0.663947	0.459772	0.616831
	O6782	O	0.627232	0.460019	0.548273
	O6783	O	0.726219	0.460251	0.588764
	O6784	O	0.682603	0.459833	0.619745
	O6785	O	0.730526	0.209464	0.655098
	O6786	O	0.610637	0.375366	0.685843
	O6787	O	0.735922	0.125989	0.585785
	C6788	C	0.711618	0.215362	0.653274
	C6789	C	0.716409	0.125477	0.653141
	C6790	C	0.711615	0.035553	0.653296
	C6791	C	0.702295	0.035565	0.653804
	C6792	C	0.697502	0.125456	0.654101
	C6793	C	0.702293	0.215347	0.653769
	C6794	C	0.687372	0.125614	0.653088
	C6795	C	0.726558	0.125275	0.654476
	C6796	C	0.660031	0.125733	0.653687
	C6797	C	0.650689	0.126065	0.660457
	C6798	C	0.646174	0.215785	0.663241
	C6799	C	0.637423	0.215972	0.669031
	C6800	C	0.632953	0.126105	0.672085
	C6801	C	0.637424	0.036404	0.669062
	C6802	C	0.646191	0.036347	0.663300
	C6803	C	0.623708	0.125848	0.679428
	C6804	C	0.660753	0.375996	0.611307
	C6805	C	0.652764	0.375866	0.596820
	C6806	C	0.649088	0.464884	0.589652
	C6807	C	0.641787	0.464783	0.575992
	C6808	C	0.637968	0.375764	0.569216
	C6809	C	0.641635	0.286798	0.576404
	C6810	C	0.648938	0.286895	0.590064
	C6811	C	0.630223	0.375749	0.554151
	C6812	C	0.686246	0.375596	0.616965
	C6813	C	0.695524	0.375742	0.609713
	C6814	C	0.700029	0.285921	0.606827
	C6815	C	0.708803	0.285985	0.601154
	C6816	C	0.713253	0.375942	0.598252
	C6817	C	0.708738	0.465801	0.600996
	C6818	C	0.699975	0.465658	0.606674
	C6819	C	0.722572	0.376161	0.591433
	H6820	H	0.712212	0.216582	0.598912
	H6821	H	0.696657	0.216362	0.609099
	H6822	H	0.715240	0.285250	0.652957
	H6823	H	0.698687	0.285218	0.653859
	H6824	H	0.673456	0.125824	0.610296
	H6825	H	0.674134	0.375786	0.661214
	H6826	H	0.610786	0.374992	0.672587
	H6827	H	0.736728	0.126374	0.598932
	H6828	H	0.651681	0.217792	0.595468
	H6829	H	0.638760	0.217860	0.571272
	H6830	H	0.634031	0.285782	0.671308
	H6831	H	0.649554	0.285504	0.660864
	H6832	H	0.639042	0.533856	0.570504
	H6833	H	0.652013	0.533838	0.594688
	H6834	H	0.649581	-0.033145	0.661018
	H6835	H	0.634069	-0.033493	0.671419
	H6836	H	0.698685	-0.034367	0.653868
	H6837	H	0.715219	-0.034371	0.653040
	H6838	H	0.696579	0.535288	0.608866
	H6839	H	0.712109	0.535437	0.598612
	Al6840	Al	0.678564	-0.500060	0.732699
	Al6841	Al	0.678597	-0.249981	0.732581
	Al6842	Al	0.610644	-0.249926	0.698026
	Al6843	Al	0.610610	-0.499066	0.698065
	O6844	O	0.689164	-0.458808	0.747888
	O6845	O	0.677922	-0.375136	0.720325
	O6846	O	0.679264	-0.125194	0.745042
	O6847	O	0.736340	-0.459253	0.750039
	O6848	O	0.669527	-0.459451	0.749561
	O6849	O	0.625158	-0.459225	0.778291
	O6850	O	0.669573	-0.291203	0.749582
	O6851	O	0.667947	-0.209621	0.717666
	O6852	O	0.620831	-0.208623	0.714717
	O6853	O	0.689232	-0.290626	0.747694
	O6854	O	0.687648	-0.208931	0.715711
	O6855	O	0.732040	-0.208960	0.687212
	O6856	O	0.625097	-0.291014	0.778172
	O6857	O	0.668015	-0.041407	0.717573
	O6858	O	0.620844	-0.040121	0.714756
	O6859	O	0.732068	-0.040939	0.687187
	O6860	O	0.687689	-0.040909	0.715856
	O6861	O	0.736361	-0.290812	0.749893
	O6862	O	0.615425	-0.124811	0.782829
	O6863	O	0.741811	-0.374701	0.682739
	C6864	C	0.717458	-0.285064	0.748677
	C6865	C	0.722253	-0.375038	0.748332
	C6866	C	0.717438	-0.465053	0.748706
	C6867	C	0.708101	-0.465123	0.749242
	C6868	C	0.703312	-0.374993	0.749442
	C6869	C	0.708122	-0.285134	0.749250
	C6870	C	0.693206	-0.374920	0.748323
	C6871	C	0.732355	-0.375008	0.749482
	C6872	C	0.665855	-0.375246	0.752218
	C6873	C	0.656390	-0.374931	0.758880
	C6874	C	0.651785	-0.285192	0.761305
	C6875	C	0.642861	-0.284984	0.766207
	C6876	C	0.638285	-0.374767	0.768908
	C6877	C	0.642891	-0.464551	0.766499
	C6878	C	0.651814	-0.464616	0.761601
	C6879	C	0.628827	-0.375097	0.775605
	C6880	C	0.663977	-0.125231	0.716957
	C6881	C	0.653868	-0.125216	0.715675
	C6882	C	0.649093	-0.035150	0.715812
	C6883	C	0.639762	-0.034948	0.716183
	C6884	C	0.634939	-0.124693	0.716407
	C6885	C	0.639731	-0.214553	0.716240
	C6886	C	0.649057	-0.214963	0.715842
	C6887	C	0.624825	-0.124461	0.715298
	C6888	C	0.691347	-0.124742	0.713065
	C6889	C	0.700796	-0.124775	0.706454
	C6890	C	0.705415	-0.214602	0.703981
	C6891	C	0.714326	-0.214713	0.699064
	C6892	C	0.718902	-0.124736	0.696369
	C6893	C	0.714298	-0.034844	0.698915
	C6894	C	0.705385	-0.034876	0.703843
	C6895	C	0.728358	-0.124874	0.689861
	H6896	H	0.717778	-0.284754	0.697260
	H6897	H	0.701961	-0.284970	0.705926
	H6898	H	0.721031	-0.214882	0.748390
	H6899	H	0.704517	-0.215103	0.749392
	H6900	H	0.676936	-0.375596	0.707180
	H6901	H	0.680226	-0.125597	0.758175
	H6902	H	0.614494	-0.125235	0.769601
	H6903	H	0.742887	-0.374839	0.695974
	H6904	H	0.652636	-0.285088	0.715743
	H6905	H	0.636111	-0.284347	0.716527
	H6906	H	0.639430	-0.214878	0.767980
	H6907	H	0.655212	-0.215088	0.759331
	H6908	H	0.636170	0.035255	0.716421
	H6909	H	0.652741	0.034721	0.715694
	H6910	H	0.655263	-0.534927	0.759862
	H6911	H	0.639490	-0.534906	0.768512
	H6912	H	0.704497	-0.535085	0.749329
	H6913	H	0.721038	-0.535036	0.748436
	H6914	H	0.701933	0.035364	0.705656
	H6915	H	0.717728	0.035454	0.696998
	Al6916	Al	0.678603	-0.000235	0.732735
	Al6917	Al	0.678565	0.249823	0.732709
	Al6918	Al	0.610596	0.249967	0.698134
	Al6919	Al	0.610664	0.000890	0.698089
	O6920	O	0.689173	0.040986	0.747852
	O6921	O	0.677943	0.124739	0.720347
	O6922	O	0.679229	0.375034	0.744998
	O6923	O	0.736299	0.040827	0.749965
	O6924	O	0.669581	0.041082	0.749700
	O6925	O	0.625143	0.041345	0.778328
	O6926	O	0.669575	0.209070	0.749769
	O6927	O	0.667895	0.290472	0.717666
	O6928	O	0.620779	0.291919	0.714923
	O6929	O	0.689197	0.209482	0.747791
	O6930	O	0.687614	0.290912	0.715622
	O6931	O	0.732081	0.290876	0.687204
	O6932	O	0.625101	0.209191	0.778148
	O6933	O	0.667957	0.458732	0.717520
	O6934	O	0.620828	0.460408	0.714744
	O6935	O	0.732095	0.458983	0.687337
	O6936	O	0.687636	0.459171	0.715661
	O6937	O	0.736256	0.209275	0.750200
	O6938	O	0.615452	0.374781	0.782793
	O6939	O	0.741769	0.125224	0.682591
	C6940	C	0.717396	0.215091	0.748764
	C6941	C	0.722169	0.124950	0.748385
	C6942	C	0.717366	0.034971	0.748592
	C6943	C	0.708047	0.035006	0.749172
	C6944	C	0.703278	0.125080	0.749455
	C6945	C	0.708074	0.215245	0.749331
	C6946	C	0.693170	0.125119	0.748382
	C6947	C	0.732298	0.124835	0.749507
	C6948	C	0.665877	0.124908	0.752389
	C6949	C	0.656409	0.125064	0.758842
	C6950	C	0.651792	0.214890	0.761359
	C6951	C	0.642849	0.215229	0.766232
	C6952	C	0.638264	0.125538	0.768938
	C6953	C	0.642866	0.035539	0.766328
	C6954	C	0.651798	0.035237	0.761451
	C6955	C	0.628810	0.125324	0.775471
	C6956	C	0.663946	0.374880	0.716952
	C6957	C	0.653808	0.375293	0.715540
	C6958	C	0.649036	0.465237	0.715771
	C6959	C	0.639712	0.465552	0.716253
	C6960	C	0.634899	0.375701	0.716531
	C6961	C	0.639669	0.285705	0.716261
	C6962	C	0.648993	0.285508	0.715761
	C6963	C	0.624781	0.376001	0.715371
	C6964	C	0.691317	0.374953	0.712950
	C6965	C	0.700765	0.374856	0.706332
	C6966	C	0.705409	0.285047	0.703919
	C6967	C	0.714338	0.285055	0.699038
	C6968	C	0.718914	0.374846	0.696356
	C6969	C	0.714314	0.464682	0.698915
	C6970	C	0.705384	0.464693	0.703794
	C6971	C	0.728376	0.374984	0.689869
	H6972	H	0.717776	0.215005	0.697174
	H6973	H	0.701979	0.214941	0.705750
	H6974	H	0.721033	0.284904	0.748537
	H6975	H	0.704477	0.285505	0.749582
	H6976	H	0.677112	0.124638	0.707184
	H6977	H	0.680218	0.374886	0.758194
	H6978	H	0.614667	0.374879	0.769581
	H6979	H	0.742636	0.125472	0.695790
	H6980	H	0.652596	0.215495	0.715668
	H6981	H	0.636065	0.215738	0.716491
	H6982	H	0.639422	0.285447	0.768062
	H6983	H	0.655263	0.285067	0.759578
	H6984	H	0.636128	0.535392	0.716529
	H6985	H	0.652667	0.535077	0.715711
	H6986	H	0.655255	-0.035064	0.759730
	H6987	H	0.639402	-0.034594	0.768266
	H6988	H	0.704430	-0.034927	0.749317
	H6989	H	0.720946	-0.035320	0.748211
	H6990	H	0.701941	0.534970	0.705554
	H6991	H	0.717724	0.534712	0.696932
	Al6992	Al	0.684498	-0.499802	0.827494
	Al6993	Al	0.684477	-0.249757	0.827478
	Al6994	Al	0.616109	-0.249753	0.795222
	Al6995	Al	0.616071	-0.499977	0.795109
	O6996	O	0.695165	-0.459047	0.842566
	O6997	O	0.683880	-0.374829	0.815137
	O6998	O	0.685148	-0.124585	0.839780
	O6999	O	0.742276	-0.459289	0.844753
	O7000	O	0.675463	-0.458422	0.844441
	O7001	O	0.631000	-0.459191	0.873116
	O7002	O	0.675438	-0.290412	0.844469
	O7003	O	0.673832	-0.209034	0.812371
	O7004	O	0.626700	-0.208898	0.810379
	O7005	O	0.695123	-0.290775	0.842643
	O7006	O	0.693506	-0.209036	0.810445
	O7007	O	0.737989	-0.209076	0.782066
	O7008	O	0.631005	-0.291045	0.872944
	O7009	O	0.673846	-0.040588	0.812321
	O7010	O	0.626679	-0.040888	0.810335
	O7011	O	0.737968	-0.040867	0.781989
	O7012	O	0.693561	-0.040931	0.810482
	O7013	O	0.742260	-0.291032	0.844712
	O7014	O	0.621309	-0.125116	0.877694
	O7015	O	0.747688	-0.374960	0.777373
	C7016	C	0.723380	-0.285274	0.843309
	C7017	C	0.728149	-0.375368	0.843156
	C7018	C	0.723341	-0.465185	0.843481
	C7019	C	0.714015	-0.464944	0.844059
	C7020	C	0.709244	-0.374907	0.844299
	C7021	C	0.714058	-0.285031	0.843924
	C7022	C	0.699123	-0.374812	0.843151
	C7023	C	0.738268	-0.375384	0.844230
	C7024	C	0.671738	-0.374522	0.847081
	C7025	C	0.662284	-0.375037	0.853655
	C7026	C	0.657650	-0.285183	0.856106
	C7027	C	0.648721	-0.285240	0.861001
	C7028	C	0.644129	-0.375019	0.863677
	C7029	C	0.648742	-0.464861	0.861032
	C7030	C	0.657670	-0.464975	0.856137
	C7031	C	0.634702	-0.375348	0.870405
	C7032	C	0.669844	-0.124810	0.811811
	C7033	C	0.659738	-0.124598	0.810716
	C7034	C	0.654933	-0.034786	0.810928
	C7035	C	0.645607	-0.034776	0.811602
	C7036	C	0.640819	-0.124886	0.811903
	C7037	C	0.645618	-0.214765	0.811736
	C7038	C	0.654954	-0.214699	0.811100
	C7039	C	0.630704	-0.124734	0.810904
	C7040	C	0.697247	-0.125136	0.807832
	C7041	C	0.706710	-0.125088	0.801344
	C7042	C	0.711307	-0.214927	0.798740
	C7043	C	0.720259	-0.214998	0.793896
	C7044	C	0.724863	-0.125020	0.791359
	C7045	C	0.720268	-0.035183	0.793988
	C7046	C	0.711323	-0.035171	0.798813
	C7047	C	0.734286	-0.124912	0.784769
	H7048	H	0.723691	-0.285189	0.791970
	H7049	H	0.707850	-0.285169	0.800403
	H7050	H	0.727001	-0.215476	0.842938
	H7051	H	0.710478	-0.214878	0.844053
	H7052	H	0.682987	-0.374902	0.801938
	H7053	H	0.685919	-0.124677	0.852980
	H7054	H	0.620414	-0.124808	0.864438
	H7055	H	0.748751	-0.374525	0.790484
	H7056	H	0.658517	-0.284977	0.810815
	H7057	H	0.641998	-0.284855	0.812029
	H7058	H	0.645270	-0.215382	0.862857
	H7059	H	0.661065	-0.214975	0.854167
	H7060	H	0.642020	0.035482	0.811793
	H7061	H	0.658532	0.035311	0.810512
	H7062	H	0.661115	-0.534972	0.854269
	H7063	H	0.645335	-0.535272	0.862916
	H7064	H	0.710410	-0.534890	0.844340
	H7065	H	0.726924	-0.535472	0.843293
	H7066	H	0.707866	0.034971	0.800614
	H7067	H	0.723704	0.035147	0.792137
	Al7068	Al	0.684486	0.000348	0.827428
	Al7069	Al	0.684476	0.250107	0.827480
	Al7070	Al	0.616084	0.250011	0.795159
	Al7071	Al	0.616090	0.000084	0.795238
	O7072	O	0.695116	0.041226	0.842548
	O7073	O	0.683814	0.125208	0.815063
	O7074	O	0.685194	0.375139	0.839855
	O7075	O	0.742265	0.041264	0.844781
	O7076	O	0.675453	0.041344	0.844410
	O7077	O	0.631017	0.040597	0.873122
	O7078	O	0.675442	0.209679	0.844477
	O7079	O	0.673842	0.290945	0.812447
	O7080	O	0.626710	0.290527	0.810312
	O7081	O	0.695112	0.209307	0.842505
	O7082	O	0.693520	0.290998	0.810462
	O7083	O	0.737972	0.290827	0.782102
	O7084	O	0.630991	0.208824	0.872956
	O7085	O	0.673831	0.459309	0.812500
	O7086	O	0.626696	0.458678	0.810331
	O7087	O	0.738018	0.458672	0.782099
	O7088	O	0.693571	0.459225	0.810549
	O7089	O	0.742267	0.209466	0.844708
	O7090	O	0.621299	0.374800	0.877697
	O7091	O	0.747676	0.124900	0.777392
	C7092	C	0.723358	0.215136	0.843332
	C7093	C	0.728146	0.125173	0.843112
	C7094	C	0.723347	0.035287	0.843506
	C7095	C	0.714024	0.035243	0.844048
	C7096	C	0.709234	0.125346	0.844107
	C7097	C	0.714033	0.215191	0.843902
	C7098	C	0.699128	0.125253	0.843089
	C7099	C	0.738271	0.125265	0.844134
	C7100	C	0.671748	0.125414	0.847137
	C7101	C	0.662314	0.124996	0.853798
	C7102	C	0.657716	0.214746	0.856365
	C7103	C	0.648787	0.214624	0.861265
	C7104	C	0.644197	0.124738	0.863857
	C7105	C	0.648780	0.034878	0.861219
	C7106	C	0.657705	0.034971	0.856296
	C7107	C	0.634720	0.124776	0.870427
	C7108	C	0.669844	0.375080	0.811889
	C7109	C	0.659713	0.375144	0.810751
	C7110	C	0.654901	0.465076	0.810973
	C7111	C	0.645572	0.464819	0.811597
	C7112	C	0.640804	0.374856	0.811894
	C7113	C	0.645616	0.284861	0.811655
	C7114	C	0.654931	0.285237	0.811045
	C7115	C	0.630687	0.374677	0.810877
	C7116	C	0.697237	0.375017	0.807896
	C7117	C	0.706691	0.375011	0.801272
	C7118	C	0.711276	0.285262	0.798637
	C7119	C	0.720200	0.285247	0.793740
	C7120	C	0.724814	0.375039	0.791281
	C7121	C	0.720228	0.464840	0.793890
	C7122	C	0.711307	0.464893	0.798820
	C7123	C	0.734278	0.374991	0.784656
	H7124	H	0.723616	0.215063	0.791804
	H7125	H	0.707827	0.215061	0.800403
	H7126	H	0.726951	0.285197	0.842968
	H7127	H	0.710415	0.285138	0.844078
	H7128	H	0.682868	0.125508	0.801860
	H7129	H	0.686153	0.375384	0.853067
	H7130	H	0.620394	0.374859	0.864451
	H7131	H	0.748575	0.124825	0.790550
	H7132	H	0.658577	0.215154	0.810827
	H7133	H	0.642061	0.214566	0.811993
	H7134	H	0.645369	0.284985	0.863156
	H7135	H	0.661168	0.284779	0.854556
	H7136	H	0.641931	0.534930	0.811935
	H7137	H	0.658474	0.535336	0.810790
	H7138	H	0.661109	-0.035374	0.854442
	H7139	H	0.645317	-0.034963	0.863063
	H7140	H	0.710437	-0.034931	0.844376
	H7141	H	0.726963	-0.035095	0.843295
	H7142	H	0.707898	0.535374	0.800778
	H7143	H	0.723672	0.535174	0.792113
	Al7144	Al	0.690444	-0.499830	0.922577
	Al7145	Al	0.690477	-0.250159	0.922599
	Al7146	Al	0.622002	-0.250067	0.890091
	Al7147	Al	0.621965	-0.500121	0.890044
	O7148	O	0.701103	-0.459074	0.937586
	O7149	O	0.689781	-0.375006	0.910267
	O7150	O	0.691103	-0.125155	0.934843
	O7151	O	0.748195	-0.458802	0.939783
	O7152	O	0.681450	-0.458673	0.939656
	O7153	O	0.637000	-0.459260	0.967975
	O7154	O	0.681474	-0.290590	0.939690
	O7155	O	0.679824	-0.209132	0.907463
	O7156	O	0.632682	-0.209174	0.905071
	O7157	O	0.701132	-0.290574	0.937629
	O7158	O	0.699490	-0.209335	0.905457
	O7159	O	0.743877	-0.208935	0.876689
	O7160	O	0.636968	-0.291103	0.967934
	O7161	O	0.679791	-0.040998	0.907327
	O7162	O	0.632694	-0.041003	0.905023
	O7163	O	0.743881	-0.040954	0.876737
	O7164	O	0.699504	-0.041283	0.905568
	O7165	O	0.748263	-0.290634	0.939303
	O7166	O	0.627315	-0.125056	0.972823
	O7167	O	0.753569	-0.374817	0.872136
	C7168	C	0.729325	-0.284468	0.938243
	C7169	C	0.734107	-0.374428	0.937886
	C7170	C	0.729329	-0.464459	0.938294
	C7171	C	0.720007	-0.464737	0.938902
	C7172	C	0.715217	-0.374884	0.939129
	C7173	C	0.719995	-0.284775	0.938891
	C7174	C	0.705110	-0.374911	0.938068
	C7175	C	0.744242	-0.374528	0.939016
	C7176	C	0.677757	-0.374541	0.942368
	C7177	C	0.668295	-0.374503	0.948878
	C7178	C	0.663683	-0.284815	0.951433
	C7179	C	0.654738	-0.284894	0.956238
	C7180	C	0.650151	-0.374890	0.958773
	C7181	C	0.654736	-0.464576	0.956109
	C7182	C	0.663680	-0.464389	0.951296
	C7183	C	0.640684	-0.375080	0.965273
	C7184	C	0.675818	-0.125262	0.906880
	C7185	C	0.665709	-0.125197	0.905745
	C7186	C	0.660927	-0.035213	0.905931
	C7187	C	0.651601	-0.035278	0.906495
	C7188	C	0.646806	-0.125157	0.906783
	C7189	C	0.651602	-0.215085	0.906672
	C7190	C	0.660932	-0.215184	0.906135
	C7191	C	0.636691	-0.125015	0.905601
	C7192	C	0.703177	-0.125414	0.902774
	C7193	C	0.712645	-0.125003	0.896177
	C7194	C	0.717223	-0.214848	0.893462
	C7195	C	0.726161	-0.214865	0.888593
	C7196	C	0.730732	-0.124861	0.886018
	C7197	C	0.726169	-0.034900	0.888732
	C7198	C	0.717232	-0.034933	0.893647
	C7199	C	0.740191	-0.124860	0.879404
	H7200	H	0.729583	-0.284858	0.886705
	H7201	H	0.713783	-0.285372	0.895212
	H7202	H	0.732923	-0.214263	0.938026
	H7203	H	0.716397	-0.214430	0.939098
	H7204	H	0.688922	-0.374961	0.897118
	H7205	H	0.692054	-0.124935	0.948016
	H7206	H	0.626342	-0.125207	0.959646
	H7207	H	0.754494	-0.374343	0.885283
	H7208	H	0.664546	-0.285178	0.905978
	H7209	H	0.647999	-0.285452	0.906923
	H7210	H	0.651294	-0.214820	0.958093
	H7211	H	0.667120	-0.214472	0.949664
	H7212	H	0.647969	0.034937	0.906639
	H7213	H	0.664502	0.034947	0.905591
	H7214	H	0.667094	-0.534598	0.949459
	H7215	H	0.651282	-0.534775	0.957863
	H7216	H	0.716425	-0.535171	0.939132
	H7217	H	0.732933	-0.534676	0.938080
	H7218	H	0.713800	0.034932	0.895567
	H7219	H	0.729589	0.035302	0.886990
	Al7220	Al	0.690430	-0.000179	0.922409
	Al7221	Al	0.690432	0.250169	0.922306
	Al7222	Al	0.621977	0.249953	0.890006
	Al7223	Al	0.621979	-0.000200	0.890087
	O7224	O	0.701054	0.041283	0.937543
	O7225	O	0.689771	0.124955	0.909997
	O7226	O	0.691014	0.374927	0.934835
	O7227	O	0.748191	0.040922	0.939805
	O7228	O	0.681430	0.040990	0.939447
	O7229	O	0.637009	0.040974	0.968095
	O7230	O	0.681450	0.209128	0.939470
	O7231	O	0.679780	0.291229	0.907307
	O7232	O	0.632663	0.291028	0.905042
	O7233	O	0.701104	0.209679	0.937254
	O7234	O	0.699380	0.291502	0.905166
	O7235	O	0.743882	0.291431	0.876991
	O7236	O	0.637023	0.208913	0.968106
	O7237	O	0.679780	0.459413	0.907485
	O7238	O	0.632644	0.459225	0.905090
	O7239	O	0.743890	0.459337	0.876924
	O7240	O	0.699442	0.459612	0.905397
	O7241	O	0.748199	0.209566	0.939828
	O7242	O	0.627352	0.374493	0.972657
	O7243	O	0.753592	0.125276	0.872252
	C7244	C	0.729310	0.215889	0.938320
	C7245	C	0.734104	0.125781	0.938169
	C7246	C	0.729315	0.035574	0.938390
	C7247	C	0.719990	0.035111	0.938937
	C7248	C	0.715198	0.125132	0.939112
	C7249	C	0.719979	0.215472	0.938859
	C7250	C	0.705079	0.125420	0.937991
	C7251	C	0.744210	0.125352	0.939261
	C7252	C	0.677731	0.125029	0.942084
	C7253	C	0.668284	0.124850	0.948729
	C7254	C	0.663676	0.214606	0.951267
	C7255	C	0.654764	0.214665	0.956186
	C7256	C	0.650166	0.124906	0.958848
	C7257	C	0.654756	0.035084	0.956207
	C7258	C	0.663680	0.035120	0.951289
	C7259	C	0.640725	0.124906	0.965433
	C7260	C	0.675798	0.375308	0.906788
	C7261	C	0.665687	0.375377	0.905760
	C7262	C	0.660896	0.465391	0.906022
	C7263	C	0.651569	0.465217	0.906558
	C7264	C	0.646759	0.375142	0.906715
	C7265	C	0.651569	0.285231	0.906624
	C7266	C	0.660884	0.285326	0.906077
	C7267	C	0.636646	0.375257	0.905612
	C7268	C	0.703120	0.375507	0.902674
	C7269	C	0.712589	0.375563	0.896060
	C7270	C	0.717156	0.285702	0.893449
	C7271	C	0.726108	0.285647	0.888622
	C7272	C	0.730707	0.375538	0.886190
	C7273	C	0.726128	0.465243	0.888757
	C7274	C	0.717178	0.465424	0.893587
	C7275	C	0.740175	0.375517	0.879571
	H7276	H	0.729527	0.215062	0.886760
	H7277	H	0.713728	0.215593	0.895259
	H7278	H	0.732894	0.286112	0.938030
	H7279	H	0.716366	0.285703	0.939095
	H7280	H	0.688924	0.124098	0.896854
	H7281	H	0.691673	0.374242	0.947980
	H7282	H	0.626665	0.373716	0.959384
	H7283	H	0.754730	0.125622	0.885421
	H7284	H	0.664486	0.215289	0.905844
	H7285	H	0.647950	0.215100	0.906939
	H7286	H	0.651333	0.284769	0.958101
	H7287	H	0.667135	0.284632	0.949482
	H7288	H	0.647965	0.535110	0.906879
	H7289	H	0.664506	0.535009	0.905783
	H7290	H	0.667154	-0.034643	0.949507
	H7291	H	0.651365	-0.035175	0.958174
	H7292	H	0.716380	-0.035009	0.939147
	H7293	H	0.732950	-0.034519	0.938115
	H7294	H	0.713774	0.535654	0.895486
	H7295	H	0.729566	0.535457	0.887024
	Al7296	Al	0.826814	-0.499364	-0.010753
	Al7297	Al	0.826833	-0.250207	-0.010749
	Al7298	Al	0.758835	-0.249238	-0.045362
	Al7299	Al	0.758867	-0.499387	-0.045121
	O7300	O	0.836097	-0.458738	0.007990
	O7301	O	0.826481	-0.374745	-0.022975
	O7302	O	0.826857	-0.124609	0.001411
	O7303	O	0.872840	-0.458576	0.076416
	O7304	O	0.817393	-0.459198	0.005212
	O7305	O	0.773737	-0.458722	0.036180
	O7306	O	0.817380	-0.290710	0.005256
	O7307	O	0.816564	-0.209375	-0.027217
	O7308	O	0.769470	-0.208232	-0.030287
	O7309	O	0.836172	-0.290781	0.007810
	O7310	O	0.836241	-0.209723	-0.026297
	O7311	O	0.879899	-0.209590	-0.057357
	O7312	O	0.773781	-0.290263	0.036350
	O7313	O	0.816593	-0.040951	-0.027525
	O7314	O	0.769495	-0.040074	-0.030206
	O7315	O	0.879855	-0.041083	-0.057413
	O7316	O	0.836197	-0.041372	-0.026375
	O7317	O	0.872882	-0.290371	0.076422
	O7318	O	0.764081	-0.124849	0.039583
	O7319	O	0.889368	-0.374778	-0.061025
	C7320	C	0.858324	-0.285304	0.048510
	C7321	C	0.862024	-0.374278	0.055619
	C7322	C	0.858282	-0.463331	0.048640
	C7323	C	0.850988	-0.463347	0.034971
	C7324	C	0.847247	-0.374407	0.028013
	C7325	C	0.851033	-0.285284	0.034863
	C7326	C	0.839290	-0.374737	0.013489
	C7327	C	0.869784	-0.374313	0.070672
	C7328	C	0.813785	-0.374888	0.008080
	C7329	C	0.804502	-0.375080	0.015302
	C7330	C	0.800027	-0.285210	0.018308
	C7331	C	0.791268	-0.285156	0.024020
	C7332	C	0.786757	-0.374953	0.026842
	C7333	C	0.791206	-0.464839	0.023855
	C7334	C	0.799966	-0.464803	0.018140
	C7335	C	0.777433	-0.374434	0.033683
	C7336	C	0.812597	-0.125114	-0.027985
	C7337	C	0.802496	-0.125179	-0.029068
	C7338	C	0.797733	-0.035012	-0.028789
	C7339	C	0.788407	-0.034843	-0.028420
	C7340	C	0.783592	-0.124661	-0.028306
	C7341	C	0.788377	-0.214762	-0.028406
	C7342	C	0.797704	-0.214971	-0.028777
	C7343	C	0.773470	-0.124221	-0.029550
	C7344	C	0.839886	-0.125348	-0.028950
	C7345	C	0.849234	-0.125239	-0.035702
	C7346	C	0.853747	-0.214993	-0.038428
	C7347	C	0.862501	-0.214929	-0.044217
	C7348	C	0.866952	-0.125195	-0.047396
	C7349	C	0.862476	-0.035327	-0.044402
	C7350	C	0.853725	-0.035426	-0.038599
	C7351	C	0.876244	-0.125307	-0.054557
	H7352	H	0.865904	-0.284631	-0.046336
	H7353	H	0.850383	-0.284841	-0.035976
	H7354	H	0.861115	-0.216120	0.053839
	H7355	H	0.848217	-0.216257	0.029516
	H7356	H	0.825742	-0.374721	-0.036211
	H7357	H	0.826575	-0.123858	0.014511
	H7358	H	0.763415	-0.125232	0.026462
	H7359	H	0.889016	-0.374780	-0.047781
	H7360	H	0.801311	-0.285233	-0.028955
	H7361	H	0.784758	-0.284912	-0.028238
	H7362	H	0.787891	-0.215510	0.026301
	H7363	H	0.803409	-0.215442	0.016076
	H7364	H	0.784800	0.035207	-0.028303
	H7365	H	0.801352	0.034921	-0.028986
	H7366	H	0.803333	-0.534490	0.015797
	H7367	H	0.787793	-0.534169	0.026024
	H7368	H	0.848165	-0.532431	0.029751
	H7369	H	0.861058	-0.532363	0.054062
	H7370	H	0.850344	0.034217	-0.036307
	H7371	H	0.865833	0.034488	-0.046702
	Al7372	Al	0.826833	0.000652	-0.010912
	Al7373	Al	0.826825	0.249705	-0.010857
	Al7374	Al	0.758845	0.250497	-0.045086
	Al7375	Al	0.758821	0.000576	-0.045214
	O7376	O	0.836166	0.041399	0.007765
	O7377	O	0.826517	0.125061	-0.023252
	O7378	O	0.826843	0.374996	0.001369
	O7379	O	0.872760	0.041366	0.076682
	O7380	O	0.817375	0.040772	0.005039
	O7381	O	0.773809	0.041040	0.036422
	O7382	O	0.817389	0.208720	0.004940
	O7383	O	0.816614	0.291084	-0.027529
	O7384	O	0.769470	0.291676	-0.030035
	O7385	O	0.836153	0.209201	0.007834
	O7386	O	0.836258	0.291408	-0.026278
	O7387	O	0.879829	0.290809	-0.057473
	O7388	O	0.773849	0.209323	0.036343
	O7389	O	0.816577	0.459452	-0.027416
	O7390	O	0.769497	0.459699	-0.030103
	O7391	O	0.879847	0.459008	-0.057526
	O7392	O	0.836248	0.459555	-0.026198
	O7393	O	0.872835	0.209149	0.076491
	O7394	O	0.764046	0.375370	0.039467
	O7395	O	0.889296	0.124899	-0.061045
	C7396	C	0.858295	0.213857	0.048569
	C7397	C	0.861972	0.125017	0.055726
	C7398	C	0.858213	0.035983	0.048780
	C7399	C	0.850952	0.036045	0.035079
	C7400	C	0.847227	0.124948	0.028012
	C7401	C	0.851022	0.213836	0.034868
	C7402	C	0.839327	0.125284	0.013374
	C7403	C	0.869741	0.125161	0.070759
	C7404	C	0.813757	0.124932	0.007882
	C7405	C	0.804515	0.124812	0.015209
	C7406	C	0.800033	0.214526	0.018112
	C7407	C	0.791288	0.214587	0.023894
	C7408	C	0.786801	0.124970	0.026868
	C7409	C	0.791301	0.035220	0.024088
	C7410	C	0.800048	0.035160	0.018331
	C7411	C	0.777478	0.124986	0.033728
	C7412	C	0.812601	0.375154	-0.028021
	C7413	C	0.802495	0.374998	-0.029035
	C7414	C	0.797715	0.464793	-0.028597
	C7415	C	0.788391	0.464948	-0.028211
	C7416	C	0.783586	0.375229	-0.028167
	C7417	C	0.788362	0.285341	-0.028467
	C7418	C	0.797691	0.285257	-0.028878
	C7419	C	0.773464	0.375593	-0.029446
	C7420	C	0.839920	0.375470	-0.028870
	C7421	C	0.849247	0.375473	-0.035722
	C7422	C	0.853715	0.285699	-0.038652
	C7423	C	0.862463	0.285721	-0.044447
	C7424	C	0.866974	0.375322	-0.047372
	C7425	C	0.862528	0.465128	-0.044267
	C7426	C	0.853783	0.465087	-0.038430
	C7427	C	0.876225	0.374911	-0.054645
	H7428	H	0.865822	0.215685	-0.046745
	H7429	H	0.850308	0.215938	-0.036434
	H7430	H	0.861173	0.282962	0.053783
	H7431	H	0.848276	0.282677	0.029407
	H7432	H	0.825829	0.125228	-0.036440
	H7433	H	0.826735	0.375304	0.014577
	H7434	H	0.763203	0.374985	0.026371
	H7435	H	0.889081	0.125282	-0.047924
	H7436	H	0.801259	0.215201	-0.029152
	H7437	H	0.784738	0.215482	-0.028375
	H7438	H	0.787871	0.284011	0.026137
	H7439	H	0.803422	0.284428	0.015839
	H7440	H	0.784838	0.534860	-0.027875
	H7441	H	0.801331	0.534548	-0.028694
	H7442	H	0.803442	-0.034458	0.016123
	H7443	H	0.787947	-0.034364	0.026505
	H7444	H	0.848153	-0.033095	0.029742
	H7445	H	0.861025	-0.033142	0.054156
	H7446	H	0.850416	0.534625	-0.035976
	H7447	H	0.865937	0.534796	-0.046429
	Al7448	Al	0.818753	-0.499478	0.159965
	Al7449	Al	0.818808	-0.249766	0.160030
	Al7450	Al	0.764339	-0.249428	0.051796
	Al7451	Al	0.764337	-0.500242	0.051674
	O7452	O	0.826982	-0.458489	0.181150
	O7453	O	0.819485	-0.374609	0.148138
	O7454	O	0.818101	-0.124345	0.171738
	O7455	O	0.860661	-0.458097	0.256434
	O7456	O	0.808670	-0.458801	0.173323
	O7457	O	0.766264	-0.458881	0.208703
	O7458	O	0.808733	-0.290420	0.173419
	O7459	O	0.810369	-0.209318	0.139095
	O7460	O	0.773666	-0.209217	0.070503
	O7461	O	0.827001	-0.290462	0.181158
	O7462	O	0.828813	-0.208839	0.146507
	O7463	O	0.871125	-0.208806	0.110632
	O7464	O	0.766232	-0.290507	0.208712
	O7465	O	0.810395	-0.040945	0.139043
	O7466	O	0.773678	-0.041214	0.070476
	O7467	O	0.871159	-0.040379	0.110860
	O7468	O	0.828749	-0.040362	0.146289
	O7469	O	0.860649	-0.290067	0.256580
	O7470	O	0.756923	-0.124513	0.210424
	O7471	O	0.880548	-0.374705	0.109147
	C7472	C	0.847087	-0.285353	0.226487
	C7473	C	0.850547	-0.374122	0.234113
	C7474	C	0.847185	-0.463003	0.226276
	C7475	C	0.840524	-0.463036	0.211230
	C7476	C	0.837034	-0.374309	0.203670
	C7477	C	0.840423	-0.285455	0.211446
	C7478	C	0.829844	-0.374512	0.187367
	C7479	C	0.857762	-0.373986	0.250315
	C7480	C	0.805131	-0.374676	0.176303
	C7481	C	0.796032	-0.374077	0.184027
	C7482	C	0.791728	-0.284645	0.187593
	C7483	C	0.783204	-0.284783	0.194534
	C7484	C	0.778871	-0.374349	0.197935
	C7485	C	0.783146	-0.463639	0.194184
	C7486	C	0.791652	-0.463377	0.187249
	C7487	C	0.769789	-0.374587	0.205761
	C7488	C	0.807327	-0.125070	0.133246
	C7489	C	0.799571	-0.125146	0.118249
	C7490	C	0.795848	-0.036050	0.111160
	C7491	C	0.788569	-0.036073	0.097468
	C7492	C	0.784796	-0.125143	0.090538
	C7493	C	0.788541	-0.214159	0.097575
	C7494	C	0.795825	-0.214157	0.111258
	C7495	C	0.776861	-0.125213	0.075981
	C7496	C	0.832331	-0.124646	0.143467
	C7497	C	0.841391	-0.124345	0.135589
	C7498	C	0.845717	-0.213746	0.132137
	C7499	C	0.854206	-0.214074	0.125093
	C7500	C	0.858526	-0.124896	0.121550
	C7501	C	0.854180	-0.035532	0.124880
	C7502	C	0.845678	-0.035145	0.131899
	C7503	C	0.867583	-0.124482	0.113660
	H7504	H	0.857463	-0.283232	0.122277
	H7505	H	0.842438	-0.282641	0.135002
	H7506	H	0.849615	-0.216581	0.232441
	H7507	H	0.837843	-0.216559	0.205611
	H7508	H	0.820117	-0.374119	0.135160
	H7509	H	0.817321	-0.123742	0.184711
	H7510	H	0.757682	-0.124314	0.197414
	H7511	H	0.879690	-0.374704	0.122067
	H7512	H	0.798644	-0.283293	0.116627
	H7513	H	0.785722	-0.283158	0.092183
	H7514	H	0.779894	-0.216022	0.197438
	H7515	H	0.795061	-0.216157	0.184945
	H7516	H	0.785799	0.032753	0.092018
	H7517	H	0.798709	0.033032	0.116390
	H7518	H	0.794902	-0.532365	0.184300
	H7519	H	0.779805	-0.532736	0.196727
	H7520	H	0.838018	-0.531805	0.205242
	H7521	H	0.849808	-0.531826	0.232051
	H7522	H	0.842337	0.033737	0.134579
	H7523	H	0.857492	0.033367	0.121880
	Al7524	Al	0.818734	0.000484	0.159828
	Al7525	Al	0.818701	0.250506	0.159987
	Al7526	Al	0.764424	0.250730	0.051710
	Al7527	Al	0.764367	-0.000168	0.051836
	O7528	O	0.826942	0.041502	0.180949
	O7529	O	0.819418	0.125661	0.148124
	O7530	O	0.818122	0.375594	0.171872
	O7531	O	0.860595	0.041532	0.256519
	O7532	O	0.808649	0.041055	0.173279
	O7533	O	0.766245	0.041075	0.208794
	O7534	O	0.808632	0.209659	0.173257
	O7535	O	0.810371	0.291736	0.139092
	O7536	O	0.773685	0.291670	0.070373
	O7537	O	0.826887	0.209663	0.181142
	O7538	O	0.828793	0.291323	0.146567
	O7539	O	0.871113	0.291273	0.110686
	O7540	O	0.766263	0.209621	0.208906
	O7541	O	0.810350	0.459805	0.139198
	O7542	O	0.773718	0.459838	0.070277
	O7543	O	0.871098	0.459695	0.110596
	O7544	O	0.828816	0.459790	0.146550
	O7545	O	0.860598	0.209588	0.256478
	O7546	O	0.756894	0.375432	0.210463
	O7547	O	0.880557	0.125623	0.109303
	C7548	C	0.847050	0.214605	0.226391
	C7549	C	0.850528	0.125647	0.233994
	C7550	C	0.847156	0.036717	0.226159
	C7551	C	0.840494	0.036714	0.211144
	C7552	C	0.836990	0.125500	0.203544
	C7553	C	0.840371	0.214496	0.211380
	C7554	C	0.829775	0.125497	0.187333
	C7555	C	0.857730	0.125409	0.250283
	C7556	C	0.805085	0.125165	0.176128
	C7557	C	0.795983	0.125486	0.183857
	C7558	C	0.791695	0.214749	0.187492
	C7559	C	0.783206	0.214698	0.194595
	C7560	C	0.778864	0.125390	0.198001
	C7561	C	0.783166	0.036124	0.194367
	C7562	C	0.791654	0.036139	0.187325
	C7563	C	0.769790	0.125564	0.205850
	C7564	C	0.807287	0.375654	0.133389
	C7565	C	0.799536	0.375614	0.118282
	C7566	C	0.795827	0.464557	0.111217
	C7567	C	0.788563	0.464764	0.097497
	C7568	C	0.784793	0.375737	0.090538
	C7569	C	0.788509	0.286578	0.097575
	C7570	C	0.795781	0.286464	0.111286
	C7571	C	0.776829	0.375794	0.075939
	C7572	C	0.832355	0.375468	0.143619
	C7573	C	0.841390	0.375599	0.135620
	C7574	C	0.845720	0.286235	0.132181
	C7575	C	0.854192	0.286190	0.125059
	C7576	C	0.858478	0.375564	0.121379
	C7577	C	0.854169	0.465022	0.124844
	C7578	C	0.845698	0.464901	0.131972
	C7579	C	0.867548	0.375662	0.113563
	H7580	H	0.857515	0.217252	0.122372
	H7581	H	0.842427	0.217285	0.135232
	H7582	H	0.849585	0.283708	0.232436
	H7583	H	0.837760	0.283414	0.205615
	H7584	H	0.820092	0.126450	0.135155
	H7585	H	0.817412	0.376032	0.184884
	H7586	H	0.757568	0.375719	0.197452
	H7587	H	0.879771	0.125305	0.122280
	H7588	H	0.798548	0.217267	0.116811
	H7589	H	0.785656	0.217540	0.092340
	H7590	H	0.779933	0.283238	0.197503
	H7591	H	0.795033	0.283536	0.184799
	H7592	H	0.785757	0.534017	0.092156
	H7593	H	0.798616	0.533700	0.116600
	H7594	H	0.794945	-0.032845	0.184423
	H7595	H	0.779842	-0.032656	0.197055
	H7596	H	0.837982	-0.032483	0.205170
	H7597	H	0.849764	-0.032311	0.231930
	H7598	H	0.842420	0.533861	0.134812
	H7599	H	0.857469	0.533817	0.122006
	Al7600	Al	0.806346	-0.499303	0.340026
	Al7601	Al	0.806326	-0.249268	0.339972
	Al7602	Al	0.756202	-0.249402	0.222307
	Al7603	Al	0.756259	-0.499458	0.222311
	O7604	O	0.814673	-0.458731	0.360933
	O7605	O	0.807020	-0.374243	0.328133
	O7606	O	0.805701	-0.124252	0.351847
	O7607	O	0.851378	-0.457981	0.429525
	O7608	O	0.796249	-0.458310	0.353342
	O7609	O	0.753906	-0.458470	0.389249
	O7610	O	0.796287	-0.290167	0.353407
	O7611	O	0.798093	-0.208254	0.318893
	O7612	O	0.764423	-0.208179	0.243487
	O7613	O	0.814656	-0.290603	0.360982
	O7614	O	0.816408	-0.208424	0.326600
	O7615	O	0.858819	-0.208597	0.291208
	O7616	O	0.753941	-0.290215	0.389284
	O7617	O	0.798126	-0.040172	0.318822
	O7618	O	0.764435	-0.040198	0.243429
	O7619	O	0.858803	-0.040265	0.291169
	O7620	O	0.816395	-0.040132	0.326569
	O7621	O	0.851356	-0.289933	0.429497
	O7622	O	0.744525	-0.124394	0.390743
	O7623	O	0.868226	-0.374237	0.289460
	C7624	C	0.836480	-0.285139	0.402523
	C7625	C	0.840237	-0.374338	0.409439
	C7626	C	0.836465	-0.463649	0.402581
	C7627	C	0.829181	-0.463570	0.388895
	C7628	C	0.825467	-0.374448	0.381854
	C7629	C	0.829190	-0.285178	0.388841
	C7630	C	0.817712	-0.374542	0.366782
	C7631	C	0.848195	-0.374007	0.423994
	C7632	C	0.792709	-0.374325	0.356374
	C7633	C	0.783658	-0.374196	0.364271
	C7634	C	0.779364	-0.285080	0.367975
	C7635	C	0.770867	-0.285070	0.375055
	C7636	C	0.766526	-0.374378	0.378432
	C7637	C	0.770837	-0.463345	0.374731
	C7638	C	0.779324	-0.463282	0.367688
	C7639	C	0.757471	-0.374424	0.386277
	C7640	C	0.795226	-0.124303	0.312630
	C7641	C	0.788010	-0.124159	0.296393
	C7642	C	0.784584	-0.035367	0.288753
	C7643	C	0.777910	-0.035177	0.273703
	C7644	C	0.774463	-0.123962	0.266003
	C7645	C	0.777849	-0.212785	0.273722
	C7646	C	0.784528	-0.212895	0.288751
	C7647	C	0.767286	-0.124205	0.249698
	C7648	C	0.819956	-0.124302	0.323695
	C7649	C	0.829029	-0.124271	0.315915
	C7650	C	0.833294	-0.213679	0.312230
	C7651	C	0.841802	-0.213689	0.305259
	C7652	C	0.846168	-0.124407	0.301902
	C7653	C	0.841910	-0.035221	0.305659
	C7654	C	0.833404	-0.035178	0.312649
	C7655	C	0.855249	-0.124616	0.294103
	H7656	H	0.845047	-0.282573	0.302272
	H7657	H	0.829956	-0.282302	0.314942
	H7658	H	0.839266	-0.215685	0.407871
	H7659	H	0.826364	-0.216062	0.383545
	H7660	H	0.807770	-0.374271	0.315139
	H7661	H	0.805162	-0.124272	0.364914
	H7662	H	0.745405	-0.123888	0.377798
	H7663	H	0.867713	-0.374707	0.302541
	H7664	H	0.787060	-0.281631	0.294597
	H7665	H	0.775241	-0.281404	0.267879
	H7666	H	0.767564	-0.216515	0.378006
	H7667	H	0.782696	-0.216325	0.365295
	H7668	H	0.775349	0.033615	0.267854
	H7669	H	0.787166	0.033623	0.294665
	H7670	H	0.782597	-0.532005	0.364784
	H7671	H	0.767538	-0.532287	0.377441
	H7672	H	0.826351	-0.532873	0.383599
	H7673	H	0.839267	-0.532775	0.408016
	H7674	H	0.830177	0.033803	0.315659
	H7675	H	0.845261	0.033777	0.302974
	Al7676	Al	0.806317	0.000711	0.339959
	Al7677	Al	0.806351	0.250766	0.340004
	Al7678	Al	0.756202	0.250705	0.222327
	Al7679	Al	0.756202	0.000400	0.222261
	O7680	O	0.814651	0.041564	0.360953
	O7681	O	0.807017	0.125943	0.328066
	O7682	O	0.805652	0.375773	0.351907
	O7683	O	0.851368	0.041968	0.429519
	O7684	O	0.796225	0.041280	0.353216
	O7685	O	0.753929	0.041656	0.389370
	O7686	O	0.796263	0.209971	0.353476
	O7687	O	0.798081	0.292092	0.318901
	O7688	O	0.764467	0.291436	0.243448
	O7689	O	0.814672	0.209715	0.360879
	O7690	O	0.816428	0.291724	0.326592
	O7691	O	0.858754	0.291710	0.290939
	O7692	O	0.753917	0.209873	0.389260
	O7693	O	0.798144	0.459857	0.318867
	O7694	O	0.764448	0.459469	0.243463
	O7695	O	0.858807	0.460031	0.291123
	O7696	O	0.816439	0.460212	0.326758
	O7697	O	0.851377	0.209760	0.429608
	O7698	O	0.744576	0.375587	0.390868
	O7699	O	0.868132	0.126072	0.289468
	C7700	C	0.836578	0.214900	0.402274
	C7701	C	0.840277	0.125986	0.409385
	C7702	C	0.836469	0.036898	0.402549
	C7703	C	0.829184	0.036842	0.388892
	C7704	C	0.825481	0.125689	0.381765
	C7705	C	0.829284	0.214667	0.388637
	C7706	C	0.817732	0.125630	0.366747
	C7707	C	0.848215	0.125808	0.423981
	C7708	C	0.792705	0.125502	0.356312
	C7709	C	0.783646	0.125736	0.364212
	C7710	C	0.779364	0.215091	0.367880
	C7711	C	0.770885	0.215140	0.374977
	C7712	C	0.766552	0.125820	0.378458
	C7713	C	0.770847	0.036385	0.374882
	C7714	C	0.779330	0.036395	0.367757
	C7715	C	0.757476	0.125863	0.386354
	C7716	C	0.795255	0.376017	0.312605
	C7717	C	0.788045	0.375852	0.296361
	C7718	C	0.784624	0.464505	0.288699
	C7719	C	0.777954	0.464416	0.273624
	C7720	C	0.774529	0.375542	0.265958
	C7721	C	0.777919	0.286836	0.273715
	C7722	C	0.784598	0.286924	0.288750
	C7723	C	0.767340	0.375541	0.249723
	C7724	C	0.819989	0.375892	0.323747
	C7725	C	0.829047	0.376080	0.315903
	C7726	C	0.833329	0.286821	0.312280
	C7727	C	0.841825	0.286782	0.305259
	C7728	C	0.846175	0.375968	0.301867
	C7729	C	0.841881	0.465159	0.305497
	C7730	C	0.833389	0.465192	0.312508
	C7731	C	0.855237	0.375811	0.294019
	H7732	H	0.845119	0.217990	0.302323
	H7733	H	0.830005	0.218099	0.315002
	H7734	H	0.839454	0.283723	0.407474
	H7735	H	0.826514	0.283742	0.383247
	H7736	H	0.807556	0.125843	0.314990
	H7737	H	0.804987	0.375760	0.364781
	H7738	H	0.745465	0.375780	0.377956
	H7739	H	0.867315	0.125427	0.302330
	H7740	H	0.787158	0.218144	0.294631
	H7741	H	0.775362	0.217691	0.267913
	H7742	H	0.767609	0.284087	0.377815
	H7743	H	0.782690	0.283904	0.365141
	H7744	H	0.775410	0.533422	0.267725
	H7745	H	0.787199	0.533589	0.294496
	H7746	H	0.782640	-0.032430	0.364958
	H7747	H	0.767533	-0.032238	0.377709
	H7748	H	0.826323	-0.031951	0.383658
	H7749	H	0.839263	-0.032068	0.407945
	H7750	H	0.830126	0.534087	0.315452
	H7751	H	0.845225	0.534123	0.302893
	Al7752	Al	0.798158	-0.498870	0.510833
	Al7753	Al	0.798168	-0.248196	0.510919
	Al7754	Al	0.743847	-0.249341	0.402660
	Al7755	Al	0.743835	-0.499102	0.402635
	O7756	O	0.808379	-0.457782	0.527478
	O7757	O	0.798167	-0.373411	0.498578
	O7758	O	0.798458	-0.123786	0.523076
	O7759	O	0.855452	-0.458543	0.530412
	O7760	O	0.788748	-0.457866	0.526255
	O7761	O	0.745134	-0.458458	0.557592
	O7762	O	0.788734	-0.289855	0.526226
	O7763	O	0.788884	-0.207599	0.492113
	O7764	O	0.752216	-0.208379	0.423520
	O7765	O	0.808363	-0.289583	0.527647
	O7766	O	0.807650	-0.208129	0.495032
	O7767	O	0.851229	-0.207954	0.463676
	O7768	O	0.745113	-0.290171	0.557437
	O7769	O	0.788877	-0.039559	0.492064
	O7770	O	0.752161	-0.040136	0.423551
	O7771	O	0.851228	-0.039613	0.463621
	O7772	O	0.807595	-0.039794	0.494918
	O7773	O	0.855515	-0.290520	0.530161
	O7774	O	0.735710	-0.124179	0.561212
	O7775	O	0.860975	-0.373702	0.460500
	C7776	C	0.836602	-0.284278	0.528614
	C7777	C	0.841386	-0.374046	0.528432
	C7778	C	0.836563	-0.463654	0.528556
	C7779	C	0.827249	-0.463493	0.528975
	C7780	C	0.822458	-0.373746	0.529241
	C7781	C	0.827275	-0.284159	0.529020
	C7782	C	0.812365	-0.373627	0.528166
	C7783	C	0.851493	-0.374382	0.529670
	C7784	C	0.785072	-0.373906	0.528899
	C7785	C	0.775755	-0.374090	0.535785
	C7786	C	0.771260	-0.284235	0.538650
	C7787	C	0.762486	-0.284419	0.544432
	C7788	C	0.758015	-0.374144	0.547441
	C7789	C	0.762508	-0.463831	0.544457
	C7790	C	0.771262	-0.463790	0.538667
	C7791	C	0.748742	-0.374322	0.554670
	C7792	C	0.785726	-0.123611	0.486526
	C7793	C	0.777773	-0.123491	0.471993
	C7794	C	0.774019	-0.034461	0.465032
	C7795	C	0.766728	-0.034697	0.451376
	C7796	C	0.762986	-0.123838	0.444414
	C7797	C	0.766728	-0.212882	0.451395
	C7798	C	0.774026	-0.212624	0.465027
	C7799	C	0.755245	-0.124046	0.429332
	C7800	C	0.811205	-0.123870	0.492056
	C7801	C	0.820461	-0.123922	0.484668
	C7802	C	0.824908	-0.213697	0.481415
	C7803	C	0.833663	-0.213738	0.475604
	C7804	C	0.838190	-0.124085	0.472936
	C7805	C	0.833724	-0.034428	0.475977
	C7806	C	0.824965	-0.034152	0.481768
	C7807	C	0.847537	-0.123688	0.466187
	H7808	H	0.837010	-0.283219	0.473221
	H7809	H	0.821509	-0.283429	0.483548
	H7810	H	0.840235	-0.214622	0.528423
	H7811	H	0.823690	-0.213917	0.529160
	H7812	H	0.798378	-0.373783	0.485410
	H7813	H	0.799211	-0.123425	0.536241
	H7814	H	0.735870	-0.123630	0.548007
	H7815	H	0.861650	-0.373731	0.473807
	H7816	H	0.776877	-0.281604	0.470386
	H7817	H	0.763912	-0.282021	0.446074
	H7818	H	0.759076	-0.214848	0.546645
	H7819	H	0.774638	-0.214989	0.536389
	H7820	H	0.763938	0.034320	0.445941
	H7821	H	0.776850	0.034739	0.470285
	H7822	H	0.774649	-0.533311	0.536375
	H7823	H	0.759151	-0.533687	0.546692
	H7824	H	0.823631	-0.533369	0.529087
	H7825	H	0.840113	-0.533575	0.528316
	H7826	H	0.821593	0.035347	0.484198
	H7827	H	0.837137	0.035149	0.473845
	Al7828	Al	0.798171	0.001018	0.510895
	Al7829	Al	0.798189	0.251609	0.510861
	Al7830	Al	0.743829	0.250543	0.402695
	Al7831	Al	0.743806	0.000722	0.402627
	O7832	O	0.808362	0.042160	0.527612
	O7833	O	0.798211	0.125861	0.498613
	O7834	O	0.798452	0.376455	0.523067
	O7835	O	0.855455	0.040853	0.530304
	O7836	O	0.788709	0.041686	0.526288
	O7837	O	0.745170	0.041816	0.557860
	O7838	O	0.788723	0.210115	0.526138
	O7839	O	0.788873	0.292229	0.492097
	O7840	O	0.752139	0.291843	0.423600
	O7841	O	0.808407	0.210476	0.527534
	O7842	O	0.807613	0.291795	0.494974
	O7843	O	0.851218	0.292174	0.463738
	O7844	O	0.745127	0.210049	0.557732
	O7845	O	0.788877	0.460382	0.492035
	O7846	O	0.752195	0.459956	0.423543
	O7847	O	0.851198	0.460491	0.463653
	O7848	O	0.807558	0.460132	0.494931
	O7849	O	0.855496	0.209183	0.530190
	O7850	O	0.735657	0.375380	0.561170
	O7851	O	0.860946	0.126131	0.460517
	C7852	C	0.836623	0.215310	0.528548
	C7853	C	0.841390	0.125085	0.528423
	C7854	C	0.836572	0.035404	0.528544
	C7855	C	0.827238	0.035808	0.529040
	C7856	C	0.822489	0.126028	0.529295
	C7857	C	0.827305	0.215606	0.529003
	C7858	C	0.812385	0.126170	0.528173
	C7859	C	0.851489	0.125143	0.529596
	C7860	C	0.785044	0.125900	0.528813
	C7861	C	0.775705	0.126328	0.535654
	C7862	C	0.771186	0.216114	0.538373
	C7863	C	0.762448	0.215839	0.544237
	C7864	C	0.758007	0.125920	0.547453
	C7865	C	0.762498	0.036091	0.544523
	C7866	C	0.771247	0.036379	0.538685
	C7867	C	0.748771	0.125915	0.554954
	C7868	C	0.785708	0.376370	0.486537
	C7869	C	0.777760	0.376181	0.471954
	C7870	C	0.774028	0.465206	0.465029
	C7871	C	0.766721	0.465006	0.451354
	C7872	C	0.762985	0.375854	0.444409
	C7873	C	0.766710	0.286851	0.451382
	C7874	C	0.774015	0.287032	0.465040
	C7875	C	0.755210	0.375925	0.429368
	C7876	C	0.811219	0.376188	0.492115
	C7877	C	0.820471	0.376365	0.484805
	C7878	C	0.824937	0.286631	0.481719
	C7879	C	0.833711	0.286578	0.475932
	C7880	C	0.838203	0.376388	0.473123
	C7881	C	0.833708	0.466034	0.476024
	C7882	C	0.824959	0.466162	0.481813
	C7883	C	0.847534	0.376303	0.466319
	H7884	H	0.837072	0.217072	0.473589
	H7885	H	0.821546	0.217030	0.483988
	H7886	H	0.840227	0.285398	0.528465
	H7887	H	0.823730	0.285805	0.529267
	H7888	H	0.798409	0.125061	0.485380
	H7889	H	0.799248	0.376488	0.536207
	H7890	H	0.735767	0.375598	0.547976
	H7891	H	0.861623	0.126195	0.473637
	H7892	H	0.776771	0.218001	0.470412
	H7893	H	0.763883	0.217685	0.446139
	H7894	H	0.759069	0.285576	0.546472
	H7895	H	0.774535	0.285670	0.535944
	H7896	H	0.763934	0.534292	0.446014
	H7897	H	0.776837	0.534467	0.470338
	H7898	H	0.774649	-0.033408	0.536443
	H7899	H	0.759144	-0.033708	0.546971
	H7900	H	0.823635	-0.033965	0.529296
	H7901	H	0.840180	-0.034586	0.528422
	H7902	H	0.821629	0.536163	0.484160
	H7903	H	0.837106	0.535411	0.473753
	Al7904	Al	0.803643	-0.499290	0.607930
	Al7905	Al	0.803616	-0.249133	0.607828
	Al7906	Al	0.735687	-0.249870	0.573437
	Al7907	Al	0.735663	-0.498885	0.573403
	O7908	O	0.814237	-0.457810	0.623196
	O7909	O	0.803036	-0.374570	0.595493
	O7910	O	0.804306	-0.124091	0.620121
	O7911	O	0.861353	-0.459073	0.625151
	O7912	O	0.794615	-0.458478	0.624823
	O7913	O	0.750178	-0.458757	0.653531
	O7914	O	0.794572	-0.290160	0.624701
	O7915	O	0.793025	-0.208406	0.592610
	O7916	O	0.745871	-0.208276	0.590134
	O7917	O	0.814273	-0.289702	0.622927
	O7918	O	0.812682	-0.208441	0.590849
	O7919	O	0.857119	-0.208885	0.562361
	O7920	O	0.750194	-0.290555	0.653352
	O7921	O	0.793014	-0.040104	0.592700
	O7922	O	0.745905	-0.040147	0.590193
	O7923	O	0.857144	-0.040672	0.562480
	O7924	O	0.812641	-0.040167	0.590720
	O7925	O	0.861357	-0.290648	0.625252
	O7926	O	0.740484	-0.124879	0.657926
	O7927	O	0.866790	-0.374062	0.557713
	C7928	C	0.842509	-0.284473	0.623820
	C7929	C	0.847272	-0.374741	0.623541
	C7930	C	0.842468	-0.464602	0.623817
	C7931	C	0.833138	-0.464266	0.624367
	C7932	C	0.828366	-0.374201	0.624552
	C7933	C	0.833180	-0.284305	0.624355
	C7934	C	0.818262	-0.373898	0.623598
	C7935	C	0.857369	-0.374815	0.624647
	C7936	C	0.790884	-0.374391	0.627391
	C7937	C	0.781458	-0.374552	0.634075
	C7938	C	0.776850	-0.284862	0.636647
	C7939	C	0.767944	-0.284918	0.641609
	C7940	C	0.763345	-0.374817	0.644143
	C7941	C	0.767927	-0.464541	0.641414
	C7942	C	0.776840	-0.464488	0.636458
	C7943	C	0.753893	-0.374749	0.650735
	C7944	C	0.789019	-0.124349	0.592038
	C7945	C	0.778906	-0.124261	0.590800
	C7946	C	0.774116	-0.034371	0.591066
	C7947	C	0.764795	-0.034415	0.591539
	C7948	C	0.759999	-0.124138	0.591718
	C7949	C	0.764783	-0.214086	0.591423
	C7950	C	0.774107	-0.214062	0.590947
	C7951	C	0.749881	-0.124307	0.590763
	C7952	C	0.816373	-0.124191	0.588191
	C7953	C	0.825853	-0.124490	0.581612
	C7954	C	0.830456	-0.214332	0.579266
	C7955	C	0.839373	-0.214622	0.574414
	C7956	C	0.843972	-0.124761	0.571750
	C7957	C	0.839363	-0.035023	0.574172
	C7958	C	0.830462	-0.034783	0.579031
	C7959	C	0.853425	-0.124789	0.565011
	H7960	H	0.842790	-0.284898	0.572657
	H7961	H	0.826983	-0.284378	0.581186
	H7962	H	0.846116	-0.214441	0.623535
	H7963	H	0.829584	-0.214010	0.624548
	H7964	H	0.802366	-0.374520	0.582250
	H7965	H	0.805289	-0.124121	0.633334
	H7966	H	0.739640	-0.125257	0.644721
	H7967	H	0.867683	-0.374202	0.570928
	H7968	H	0.777708	-0.283969	0.590652
	H7969	H	0.761186	-0.284003	0.591582
	H7970	H	0.764531	-0.214436	0.643666
	H7971	H	0.780313	-0.214871	0.634881
	H7972	H	0.761183	0.035575	0.591820
	H7973	H	0.777706	0.035682	0.590904
	H7974	H	0.780253	-0.534515	0.634534
	H7975	H	0.764494	-0.534529	0.643347
	H7976	H	0.829535	-0.534466	0.624571
	H7977	H	0.846044	-0.534716	0.623506
	H7978	H	0.827024	0.035342	0.580808
	H7979	H	0.842813	0.034727	0.572208
	Al7980	Al	0.803618	0.001082	0.607750
	Al7981	Al	0.803650	0.251031	0.607879
	Al7982	Al	0.735673	0.250285	0.573543
	Al7983	Al	0.735692	0.001142	0.573628
	O7984	O	0.814256	0.041549	0.622960
	O7985	O	0.802942	0.126192	0.595450
	O7986	O	0.804309	0.375776	0.620301
	O7987	O	0.861371	0.040906	0.625287
	O7988	O	0.794577	0.041596	0.624751
	O7989	O	0.750116	0.041430	0.653202
	O7990	O	0.794586	0.209843	0.624782
	O7991	O	0.793003	0.291719	0.592734
	O7992	O	0.745887	0.291733	0.590157
	O7993	O	0.814268	0.209937	0.623045
	O7994	O	0.812705	0.291660	0.590912
	O7995	O	0.857076	0.291110	0.562359
	O7996	O	0.750176	0.209654	0.653316
	O7997	O	0.793007	0.459664	0.592740
	O7998	O	0.745888	0.459996	0.590079
	O7999	O	0.857099	0.459396	0.562335
	O8000	O	0.812693	0.459863	0.590969
	O8001	O	0.861367	0.209270	0.625244
	O8002	O	0.740491	0.375231	0.657994
	O8003	O	0.866805	0.125839	0.557653
	C8004	C	0.842501	0.215650	0.623853
	C8005	C	0.847265	0.125447	0.623632
	C8006	C	0.842465	0.035410	0.623895
	C8007	C	0.833144	0.035477	0.624423
	C8008	C	0.828382	0.125585	0.624606
	C8009	C	0.833173	0.215623	0.624371
	C8010	C	0.818254	0.125696	0.623545
	C8011	C	0.857390	0.125067	0.624762
	C8012	C	0.790901	0.125712	0.627467
	C8013	C	0.781436	0.125473	0.634077
	C8014	C	0.776848	0.215375	0.636682
	C8015	C	0.767919	0.215191	0.641563
	C8016	C	0.763312	0.125307	0.644083
	C8017	C	0.767889	0.035382	0.641360
	C8018	C	0.776822	0.035440	0.636484
	C8019	C	0.753848	0.125299	0.650612
	C8020	C	0.789012	0.375673	0.592103
	C8021	C	0.778898	0.375648	0.590857
	C8022	C	0.774114	0.465641	0.591052
	C8023	C	0.764790	0.465728	0.591492
	C8024	C	0.759999	0.375857	0.591674
	C8025	C	0.764784	0.286007	0.591417
	C8026	C	0.774112	0.285765	0.590966
	C8027	C	0.749878	0.375911	0.590648
	C8028	C	0.816387	0.375812	0.588239
	C8029	C	0.825851	0.375912	0.581580
	C8030	C	0.830422	0.285912	0.578938
	C8031	C	0.839326	0.285749	0.574086
	C8032	C	0.843931	0.375536	0.571541
	C8033	C	0.839351	0.465513	0.574088
	C8034	C	0.830451	0.465663	0.578948
	C8035	C	0.853407	0.375252	0.565016
	H8036	H	0.842804	0.215741	0.572250
	H8037	H	0.826984	0.215535	0.580786
	H8038	H	0.846106	0.285798	0.623574
	H8039	H	0.829595	0.285775	0.624555
	H8040	H	0.801992	0.126507	0.582261
	H8041	H	0.805187	0.375727	0.633489
	H8042	H	0.739649	0.375353	0.644837
	H8043	H	0.867751	0.125843	0.570854
	H8044	H	0.777696	0.215845	0.590788
	H8045	H	0.761182	0.216037	0.591572
	H8046	H	0.764513	0.285448	0.643562
	H8047	H	0.780316	0.285721	0.634994
	H8048	H	0.761186	0.535722	0.591718
	H8049	H	0.777746	0.535476	0.590918
	H8050	H	0.780272	-0.034583	0.634648
	H8051	H	0.764470	-0.035211	0.643200
	H8052	H	0.829517	-0.034363	0.624654
	H8053	H	0.846051	-0.034928	0.623595
	H8054	H	0.826996	0.535930	0.580848
	H8055	H	0.842795	0.535543	0.572245
	Al8056	Al	0.809547	-0.499213	0.702678
	Al8057	Al	0.809534	-0.249610	0.702745
	Al8058	Al	0.741125	-0.249865	0.670339
	Al8059	Al	0.741098	-0.499864	0.670419
	O8060	O	0.820173	-0.458544	0.717843
	O8061	O	0.808833	-0.374396	0.690346
	O8062	O	0.810218	-0.124532	0.715158
	O8063	O	0.867278	-0.459128	0.720149
	O8064	O	0.800512	-0.458550	0.719783
	O8065	O	0.756017	-0.458883	0.747990
	O8066	O	0.800471	-0.290447	0.719740
	O8067	O	0.798876	-0.208941	0.687756
	O8068	O	0.751732	-0.208649	0.685507
	O8069	O	0.820206	-0.290152	0.717767
	O8070	O	0.818578	-0.208748	0.685685
	O8071	O	0.862996	-0.208932	0.657207
	O8072	O	0.756044	-0.290532	0.748048
	O8073	O	0.798884	-0.040526	0.687779
	O8074	O	0.751758	-0.040439	0.685286
	O8075	O	0.863066	-0.040798	0.657320
	O8076	O	0.818616	-0.040649	0.685836
	O8077	O	0.867348	-0.290782	0.719810
	O8078	O	0.746335	-0.124922	0.752583
	O8079	O	0.872669	-0.374719	0.652561
	C8080	C	0.848426	-0.284559	0.718563
	C8081	C	0.853207	-0.374556	0.718445
	C8082	C	0.848418	-0.464690	0.718763
	C8083	C	0.839088	-0.464619	0.719301
	C8084	C	0.834293	-0.374644	0.719440
	C8085	C	0.839091	-0.284476	0.719121
	C8086	C	0.824190	-0.374497	0.718356
	C8087	C	0.863311	-0.374741	0.719482
	C8088	C	0.796789	-0.374631	0.722398
	C8089	C	0.787337	-0.374788	0.729020
	C8090	C	0.782725	-0.284973	0.731504
	C8091	C	0.773789	-0.285053	0.736323
	C8092	C	0.769188	-0.374927	0.738840
	C8093	C	0.773798	-0.464889	0.736370
	C8094	C	0.782728	-0.464711	0.731518
	C8095	C	0.759726	-0.374838	0.745381
	C8096	C	0.794885	-0.124687	0.687257
	C8097	C	0.784768	-0.124662	0.686016
	C8098	C	0.779992	-0.034620	0.686208
	C8099	C	0.770666	-0.034695	0.686696
	C8100	C	0.765861	-0.124634	0.687020
	C8101	C	0.770632	-0.214625	0.686829
	C8102	C	0.779969	-0.214735	0.686348
	C8103	C	0.755738	-0.124555	0.685924
	C8104	C	0.822296	-0.124630	0.683104
	C8105	C	0.831760	-0.124670	0.676515
	C8106	C	0.836341	-0.214599	0.673852
	C8107	C	0.845262	-0.214719	0.668997
	C8108	C	0.849882	-0.124824	0.666512
	C8109	C	0.845282	-0.034953	0.669050
	C8110	C	0.836372	-0.034737	0.673915
	C8111	C	0.859317	-0.124835	0.659912
	H8112	H	0.848703	-0.284736	0.667135
	H8113	H	0.832890	-0.284834	0.675685
	H8114	H	0.852044	-0.214780	0.718230
	H8115	H	0.835517	-0.214114	0.719313
	H8116	H	0.807727	-0.374485	0.677176
	H8117	H	0.811193	-0.124685	0.728292
	H8118	H	0.745367	-0.124658	0.739336
	H8119	H	0.873510	-0.375255	0.665817
	H8120	H	0.783558	-0.284825	0.686192
	H8121	H	0.767019	-0.284785	0.687099
	H8122	H	0.770346	-0.214789	0.738103
	H8123	H	0.786138	-0.214626	0.729603
	H8124	H	0.767083	0.035251	0.686860
	H8125	H	0.783598	0.035613	0.686038
	H8126	H	0.786164	-0.534743	0.729596
	H8127	H	0.770337	-0.535143	0.738190
	H8128	H	0.835456	-0.534441	0.719648
	H8129	H	0.851980	-0.534998	0.718585
	H8130	H	0.832945	0.035124	0.675819
	H8131	H	0.848746	0.035149	0.667215
	Al8132	Al	0.809575	0.000696	0.702854
	Al8133	Al	0.809569	0.250576	0.702788
	Al8134	Al	0.741149	0.250147	0.670258
	Al8135	Al	0.741118	0.000174	0.670270
	O8136	O	0.820232	0.041522	0.717846
	O8137	O	0.808899	0.125321	0.690450
	O8138	O	0.810202	0.375739	0.714970
	O8139	O	0.867344	0.041037	0.719849
	O8140	O	0.800539	0.041432	0.719841
	O8141	O	0.756041	0.041505	0.747987
	O8142	O	0.800549	0.209304	0.719867
	O8143	O	0.798897	0.291142	0.687589
	O8144	O	0.751756	0.291283	0.685432
	O8145	O	0.820215	0.209847	0.717838
	O8146	O	0.818598	0.291634	0.685712
	O8147	O	0.863028	0.291297	0.657248
	O8148	O	0.756064	0.209384	0.748059
	O8149	O	0.798895	0.459432	0.687429
	O8150	O	0.751775	0.459520	0.685439
	O8151	O	0.863077	0.459405	0.657292
	O8152	O	0.818614	0.459886	0.685786
	O8153	O	0.867351	0.209479	0.719900
	O8154	O	0.746305	0.374925	0.752726
	O8155	O	0.872766	0.125191	0.652616
	C8156	C	0.848464	0.215601	0.718577
	C8157	C	0.853246	0.125415	0.718361
	C8158	C	0.848433	0.035475	0.718611
	C8159	C	0.839100	0.035634	0.719140
	C8160	C	0.834336	0.125776	0.719367
	C8161	C	0.839140	0.215796	0.719093
	C8162	C	0.824213	0.125704	0.718358
	C8163	C	0.863359	0.125250	0.719341
	C8164	C	0.796851	0.125510	0.722514
	C8165	C	0.787377	0.125451	0.728981
	C8166	C	0.782773	0.215353	0.731559
	C8167	C	0.773832	0.215252	0.736391
	C8168	C	0.769211	0.125402	0.738865
	C8169	C	0.773847	0.035479	0.736476
	C8170	C	0.782786	0.035546	0.731640
	C8171	C	0.759755	0.125305	0.745421
	C8172	C	0.794903	0.375179	0.687002
	C8173	C	0.784795	0.375060	0.685984
	C8174	C	0.780005	0.465137	0.686250
	C8175	C	0.770670	0.465163	0.686766
	C8176	C	0.765870	0.375222	0.687040
	C8177	C	0.770667	0.285111	0.686855
	C8178	C	0.780002	0.285087	0.686299
	C8179	C	0.755760	0.375419	0.685986
	C8180	C	0.822312	0.375822	0.683108
	C8181	C	0.831771	0.375637	0.676531
	C8182	C	0.836364	0.285694	0.673972
	C8183	C	0.845288	0.285473	0.669130
	C8184	C	0.849894	0.375358	0.666561
	C8185	C	0.845327	0.465313	0.669273
	C8186	C	0.836403	0.465488	0.674106
	C8187	C	0.859359	0.375513	0.659985
	H8188	H	0.848731	0.215056	0.667211
	H8189	H	0.832902	0.215553	0.675749
	H8190	H	0.852042	0.285802	0.718350
	H8191	H	0.835501	0.285706	0.719333
	H8192	H	0.807966	0.125075	0.677260
	H8193	H	0.811338	0.376171	0.728207
	H8194	H	0.745159	0.375319	0.739679
	H8195	H	0.873764	0.125239	0.665770
	H8196	H	0.783586	0.214877	0.686111
	H8197	H	0.767060	0.214970	0.687115
	H8198	H	0.770385	0.285546	0.738237
	H8199	H	0.786236	0.285416	0.729736
	H8200	H	0.767072	0.535553	0.686982
	H8201	H	0.783613	0.535279	0.686021
	H8202	H	0.786223	-0.034490	0.729870
	H8203	H	0.770418	-0.034599	0.738383
	H8204	H	0.835512	-0.034703	0.719440
	H8205	H	0.852056	-0.034642	0.718368
	H8206	H	0.832975	0.535906	0.676008
	H8207	H	0.848808	0.535041	0.667537
	Al8208	Al	0.815402	-0.499856	0.797445
	Al8209	Al	0.815432	-0.249527	0.797486
	Al8210	Al	0.747002	-0.249830	0.764956
	Al8211	Al	0.747014	-0.499776	0.765103
	O8212	O	0.826068	-0.458850	0.812461
	O8213	O	0.814708	-0.374729	0.785179
	O8214	O	0.816133	-0.124696	0.809831
	O8215	O	0.873191	-0.459263	0.814768
	O8216	O	0.806440	-0.458946	0.814521
	O8217	O	0.761999	-0.459166	0.842951
	O8218	O	0.806428	-0.290887	0.814547
	O8219	O	0.804737	-0.209174	0.782554
	O8220	O	0.757626	-0.208790	0.780093
	O8221	O	0.826087	-0.290517	0.812483
	O8222	O	0.824448	-0.208434	0.780497
	O8223	O	0.868899	-0.208871	0.752017
	O8224	O	0.761976	-0.291030	0.842853
	O8225	O	0.804784	-0.041017	0.782332
	O8226	O	0.757617	-0.040696	0.780039
	O8227	O	0.868914	-0.040725	0.752109
	O8228	O	0.824452	-0.040423	0.780485
	O8229	O	0.873203	-0.290844	0.814617
	O8230	O	0.752257	-0.124882	0.847472
	O8231	O	0.878627	-0.374584	0.747435
	C8232	C	0.854326	-0.285031	0.813164
	C8233	C	0.859107	-0.375135	0.813122
	C8234	C	0.854301	-0.465033	0.813474
	C8235	C	0.844985	-0.464739	0.813926
	C8236	C	0.840182	-0.374599	0.813932
	C8237	C	0.844996	-0.284754	0.813625
	C8238	C	0.830071	-0.374692	0.812947
	C8239	C	0.869207	-0.375079	0.814160
	C8240	C	0.802704	-0.374922	0.817121
	C8241	C	0.793277	-0.374978	0.823746
	C8242	C	0.788668	-0.285186	0.826286
	C8243	C	0.779735	-0.285316	0.831132
	C8244	C	0.775127	-0.375126	0.833673
	C8245	C	0.779754	-0.464955	0.831249
	C8246	C	0.788688	-0.464780	0.826353
	C8247	C	0.765700	-0.375068	0.840260
	C8248	C	0.800774	-0.125011	0.781935
	C8249	C	0.790653	-0.124863	0.780824
	C8250	C	0.785872	-0.034896	0.781032
	C8251	C	0.776542	-0.035029	0.781570
	C8252	C	0.771739	-0.124871	0.781850
	C8253	C	0.776518	-0.214841	0.781515
	C8254	C	0.785848	-0.214783	0.780978
	C8255	C	0.761623	-0.124624	0.780629
	C8256	C	0.828154	-0.124430	0.777882
	C8257	C	0.837631	-0.124450	0.771293
	C8258	C	0.842235	-0.214170	0.768658
	C8259	C	0.851172	-0.214269	0.763857
	C8260	C	0.855781	-0.124458	0.761416
	C8261	C	0.851162	-0.034652	0.763955
	C8262	C	0.842225	-0.034534	0.768789
	C8263	C	0.865223	-0.124622	0.754757
	H8264	H	0.854567	-0.284839	0.761988
	H8265	H	0.838771	-0.284601	0.770437
	H8266	H	0.857954	-0.214995	0.812849
	H8267	H	0.841372	-0.214795	0.813719
	H8268	H	0.813786	-0.375064	0.772019
	H8269	H	0.817132	-0.124372	0.823057
	H8270	H	0.751314	-0.124382	0.834266
	H8271	H	0.879562	-0.374644	0.760644
	H8272	H	0.789449	-0.284757	0.780711
	H8273	H	0.772920	-0.285250	0.781703
	H8274	H	0.776301	-0.215075	0.833007
	H8275	H	0.792090	-0.214978	0.824390
	H8276	H	0.772930	0.034969	0.781782
	H8277	H	0.789472	0.035371	0.780862
	H8278	H	0.792138	-0.534828	0.824557
	H8279	H	0.776336	-0.535228	0.833153
	H8280	H	0.841375	-0.534791	0.814267
	H8281	H	0.857910	-0.535094	0.813405
	H8282	H	0.838793	0.035692	0.770662
	H8283	H	0.854622	0.035285	0.762140
	Al8284	Al	0.815426	0.000120	0.797563
	Al8285	Al	0.815413	0.250374	0.797352
	Al8286	Al	0.746987	0.250025	0.765090
	Al8287	Al	0.746988	0.000435	0.764944
	O8288	O	0.826057	0.041323	0.812718
	O8289	O	0.814696	0.124948	0.785104
	O8290	O	0.816128	0.374946	0.809751
	O8291	O	0.873160	0.040933	0.814669
	O8292	O	0.806371	0.041122	0.814409
	O8293	O	0.761969	0.041188	0.842969
	O8294	O	0.806359	0.209055	0.814300
	O8295	O	0.804756	0.291279	0.782309
	O8296	O	0.757646	0.290931	0.780011
	O8297	O	0.826047	0.209431	0.812535
	O8298	O	0.824464	0.291023	0.780400
	O8299	O	0.868965	0.291214	0.752062
	O8300	O	0.761954	0.209062	0.842963
	O8301	O	0.804757	0.459411	0.782405
	O8302	O	0.757660	0.459175	0.780143
	O8303	O	0.869020	0.459257	0.752344
	O8304	O	0.824468	0.459289	0.780450
	O8305	O	0.873182	0.209495	0.814551
	O8306	O	0.752201	0.375121	0.847493
	O8307	O	0.878597	0.125510	0.747351
	C8308	C	0.854277	0.215534	0.813436
	C8309	C	0.859064	0.125538	0.813126
	C8310	C	0.854277	0.035556	0.813496
	C8311	C	0.844935	0.035692	0.814097
	C8312	C	0.840155	0.125705	0.814251
	C8313	C	0.844939	0.215860	0.814015
	C8314	C	0.830051	0.125510	0.813118
	C8315	C	0.869177	0.125308	0.814146
	C8316	C	0.802667	0.125086	0.817071
	C8317	C	0.793245	0.125222	0.823652
	C8318	C	0.788648	0.214945	0.826256
	C8319	C	0.779709	0.214962	0.831153
	C8320	C	0.775092	0.125183	0.833673
	C8321	C	0.779707	0.035501	0.831125
	C8322	C	0.788638	0.035450	0.826227
	C8323	C	0.765670	0.125094	0.840283
	C8324	C	0.800765	0.375312	0.781839
	C8325	C	0.790622	0.375088	0.780758
	C8326	C	0.785835	0.465037	0.781072
	C8327	C	0.776516	0.465189	0.781630
	C8328	C	0.771730	0.375069	0.781749
	C8329	C	0.776501	0.285018	0.781499
	C8330	C	0.785832	0.285050	0.780965
	C8331	C	0.761624	0.375087	0.780749
	C8332	C	0.828163	0.375175	0.777796
	C8333	C	0.837632	0.375132	0.771207
	C8334	C	0.842231	0.285222	0.768617
	C8335	C	0.851167	0.285075	0.763802
	C8336	C	0.855811	0.374984	0.761371
	C8337	C	0.851208	0.464729	0.763923
	C8338	C	0.842267	0.464940	0.768690
	C8339	C	0.865280	0.375029	0.754841
	H8340	H	0.854607	0.214983	0.761819
	H8341	H	0.838760	0.215066	0.770342
	H8342	H	0.857906	0.285474	0.813177
	H8343	H	0.841370	0.286070	0.814202
	H8344	H	0.813707	0.124155	0.772003
	H8345	H	0.817073	0.374697	0.822994
	H8346	H	0.751119	0.374795	0.834295
	H8347	H	0.879332	0.125566	0.760591
	H8348	H	0.789420	0.215107	0.780587
	H8349	H	0.772883	0.215225	0.781563
	H8350	H	0.776288	0.285085	0.833032
	H8351	H	0.792079	0.285150	0.824446
	H8352	H	0.772942	0.535445	0.781743
	H8353	H	0.789442	0.535169	0.780731
	H8354	H	0.792075	-0.034727	0.824344
	H8355	H	0.776274	-0.034767	0.832975
	H8356	H	0.841301	-0.034165	0.814372
	H8357	H	0.857825	-0.034762	0.813320
	H8358	H	0.838814	0.535158	0.770458
	H8359	H	0.854636	0.534842	0.762107
	Al8360	Al	0.821339	-0.499526	0.892254
	Al8361	Al	0.821365	-0.249368	0.892136
	Al8362	Al	0.752880	-0.249896	0.859739
	Al8363	Al	0.752944	-0.500060	0.859864
	O8364	O	0.831927	-0.458409	0.907478
	O8365	O	0.820754	-0.374578	0.879913
	O8366	O	0.821943	-0.124442	0.904561
	O8367	O	0.879068	-0.459217	0.910203
	O8368	O	0.812308	-0.458455	0.909104
	O8369	O	0.767882	-0.458745	0.937828
	O8370	O	0.812321	-0.290436	0.909125
	O8371	O	0.810719	-0.208826	0.876944
	O8372	O	0.763560	-0.209070	0.874760
	O8373	O	0.831999	-0.290261	0.907331
	O8374	O	0.830389	-0.208159	0.875253
	O8375	O	0.874829	-0.208853	0.846686
	O8376	O	0.767901	-0.290490	0.937813
	O8377	O	0.810682	-0.040501	0.877124
	O8378	O	0.763536	-0.040941	0.875128
	O8379	O	0.874798	-0.040602	0.846712
	O8380	O	0.830434	-0.040049	0.875420
	O8381	O	0.879102	-0.290767	0.910082
	O8382	O	0.758178	-0.124227	0.942376
	O8383	O	0.884492	-0.374645	0.842095
	C8384	C	0.860207	-0.284841	0.908715
	C8385	C	0.864978	-0.374876	0.908400
	C8386	C	0.860192	-0.464725	0.908517
	C8387	C	0.850855	-0.464606	0.908963
	C8388	C	0.846080	-0.374678	0.909174
	C8389	C	0.850880	-0.284670	0.909135
	C8390	C	0.835938	-0.374511	0.908016
	C8391	C	0.875101	-0.374915	0.909524
	C8392	C	0.808612	-0.374502	0.911802
	C8393	C	0.799163	-0.374395	0.918478
	C8394	C	0.794552	-0.284742	0.920988
	C8395	C	0.785622	-0.284736	0.925899
	C8396	C	0.781054	-0.374667	0.928536
	C8397	C	0.785667	-0.464319	0.926052
	C8398	C	0.794595	-0.464292	0.921144
	C8399	C	0.771591	-0.374665	0.935193
	C8400	C	0.806697	-0.124678	0.876518
	C8401	C	0.796590	-0.124959	0.875496
	C8402	C	0.791792	-0.035060	0.875837
	C8403	C	0.782461	-0.035087	0.876406
	C8404	C	0.777671	-0.125007	0.876597
	C8405	C	0.782471	-0.214875	0.876267
	C8406	C	0.791803	-0.214942	0.875654
	C8407	C	0.767552	-0.124848	0.875494
	C8408	C	0.834130	-0.124139	0.872700
	C8409	C	0.843581	-0.124319	0.866110
	C8410	C	0.848155	-0.214354	0.863508
	C8411	C	0.857071	-0.214428	0.858624
	C8412	C	0.861696	-0.124664	0.856114
	C8413	C	0.857108	-0.034747	0.858648
	C8414	C	0.848186	-0.034548	0.863533
	C8415	C	0.871125	-0.124750	0.849395
	H8416	H	0.860499	-0.284593	0.856724
	H8417	H	0.844703	-0.284465	0.865359
	H8418	H	0.863816	-0.214956	0.908625
	H8419	H	0.847305	-0.214623	0.909478
	H8420	H	0.819906	-0.375201	0.866634
	H8421	H	0.822622	-0.124684	0.917823
	H8422	H	0.757243	-0.124209	0.929150
	H8423	H	0.885302	-0.374463	0.855329
	H8424	H	0.795384	-0.285148	0.875297
	H8425	H	0.778868	-0.284983	0.876426
	H8426	H	0.782214	-0.214488	0.927771
	H8427	H	0.797972	-0.214509	0.919135
	H8428	H	0.778872	0.035058	0.876685
	H8429	H	0.795391	0.034923	0.875634
	H8430	H	0.798010	-0.534630	0.919449
	H8431	H	0.782248	-0.534486	0.928035
	H8432	H	0.847220	-0.534509	0.909136
	H8433	H	0.863759	-0.534664	0.908311
	H8434	H	0.844777	0.035739	0.865450
	H8435	H	0.860561	0.035519	0.856867
	Al8436	Al	0.821362	0.000443	0.892219
	Al8437	Al	0.821314	0.250390	0.892205
	Al8438	Al	0.752934	0.250433	0.859916
	Al8439	Al	0.752905	0.000130	0.859924
	O8440	O	0.831947	0.041824	0.907506
	O8441	O	0.820727	0.125453	0.879893
	O8442	O	0.821967	0.375443	0.904618
	O8443	O	0.879046	0.040260	0.910238
	O8444	O	0.812272	0.041023	0.909055
	O8445	O	0.767876	0.041551	0.937717
	O8446	O	0.812326	0.209278	0.909201
	O8447	O	0.810697	0.291127	0.877126
	O8448	O	0.763566	0.290966	0.874956
	O8449	O	0.831969	0.210036	0.907295
	O8450	O	0.830374	0.291786	0.875213
	O8451	O	0.874836	0.291100	0.846770
	O8452	O	0.767872	0.209559	0.937806
	O8453	O	0.810739	0.459467	0.877034
	O8454	O	0.763555	0.459300	0.874931
	O8455	O	0.874869	0.458878	0.846862
	O8456	O	0.830400	0.459797	0.875275
	O8457	O	0.879086	0.208837	0.910048
	O8458	O	0.758155	0.375480	0.942543
	O8459	O	0.884468	0.125568	0.842023
	C8460	C	0.860215	0.214840	0.908753
	C8461	C	0.864982	0.124820	0.908418
	C8462	C	0.860159	0.035144	0.908625
	C8463	C	0.850830	0.035331	0.909061
	C8464	C	0.846060	0.125425	0.909246
	C8465	C	0.850881	0.215115	0.909171
	C8466	C	0.835949	0.125862	0.907994
	C8467	C	0.875081	0.124672	0.909596
	C8468	C	0.808592	0.125168	0.911832
	C8469	C	0.799160	0.125460	0.918463
	C8470	C	0.794516	0.215370	0.920877
	C8471	C	0.785598	0.215424	0.925760
	C8472	C	0.781025	0.125635	0.928480
	C8473	C	0.785650	0.035768	0.926058
	C8474	C	0.794565	0.035661	0.921170
	C8475	C	0.771582	0.125521	0.935099
	C8476	C	0.806719	0.375396	0.876558
	C8477	C	0.796618	0.375457	0.875474
	C8478	C	0.791807	0.465521	0.875780
	C8479	C	0.782476	0.465369	0.876371
	C8480	C	0.777680	0.375158	0.876570
	C8481	C	0.782500	0.285166	0.876265
	C8482	C	0.791823	0.285338	0.875695
	C8483	C	0.767562	0.375226	0.875531
	C8484	C	0.834087	0.375770	0.872629
	C8485	C	0.843553	0.375646	0.866021
	C8486	C	0.848135	0.285727	0.863427
	C8487	C	0.857081	0.285620	0.858626
	C8488	C	0.861707	0.375348	0.856063
	C8489	C	0.857155	0.465212	0.858772
	C8490	C	0.848199	0.465353	0.863589
	C8491	C	0.871174	0.375045	0.849588
	H8492	H	0.860474	0.215419	0.856602
	H8493	H	0.844637	0.215624	0.864976
	H8494	H	0.863808	0.284850	0.908560
	H8495	H	0.847268	0.285282	0.909297
	H8496	H	0.819731	0.125661	0.866782
	H8497	H	0.822820	0.375384	0.917872
	H8498	H	0.757113	0.375187	0.929393
	H8499	H	0.885313	0.125747	0.855233
	H8500	H	0.795432	0.215112	0.875348
	H8501	H	0.778890	0.215110	0.876393
	H8502	H	0.782126	0.285344	0.927528
	H8503	H	0.797942	0.285793	0.918868
	H8504	H	0.778825	0.535310	0.876559
	H8505	H	0.795410	0.535678	0.875499
	H8506	H	0.798026	-0.034178	0.919412
	H8507	H	0.782233	-0.034198	0.928047
	H8508	H	0.847232	-0.034588	0.909106
	H8509	H	0.863757	-0.035222	0.908357
	H8510	H	0.844752	0.535746	0.865227
	H8511	H	0.860591	0.535423	0.856913
	Al8512	Al	0.943674	-0.499671	0.034959
	Al8513	Al	0.943687	-0.249561	0.034950
	Al8514	Al	0.889355	-0.249306	-0.073312
	Al8515	Al	0.889354	-0.500344	-0.073315
	O8516	O	0.951896	-0.458795	0.056142
	O8517	O	0.944348	-0.374555	0.023088
	O8518	O	0.943055	-0.124541	0.046772
	O8519	O	0.985585	-0.458589	0.131576
	O8520	O	0.933604	-0.458597	0.048297
	O8521	O	0.891242	-0.458614	0.083764
	O8522	O	0.933590	-0.290084	0.048268
	O8523	O	0.935288	-0.208573	0.014193
	O8524	O	0.898635	-0.208889	-0.054427
	O8525	O	0.951897	-0.290778	0.056090
	O8526	O	0.953717	-0.208824	0.021406
	O8527	O	0.996077	-0.209310	-0.014401
	O8528	O	0.891272	-0.290211	0.083762
	O8529	O	0.935375	-0.040329	0.014062
	O8530	O	0.898624	-0.040725	-0.054477
	O8531	O	0.996110	-0.040924	-0.014261
	O8532	O	0.953764	-0.040296	0.021396
	O8533	O	0.985614	-0.290517	0.131518
	O8534	O	0.881917	-0.124571	0.085469
	O8535	O	1.005534	-0.374788	-0.015872
	C8536	C	0.972110	-0.285549	0.101284
	C8537	C	0.975552	-0.374493	0.108993
	C8538	C	0.972128	-0.463338	0.101230
	C8539	C	0.965452	-0.463645	0.086213
	C8540	C	0.962012	-0.374692	0.078500
	C8541	C	0.965428	-0.285736	0.086261
	C8542	C	0.954765	-0.374816	0.062319
	C8543	C	0.982748	-0.374461	0.125234
	C8544	C	0.930050	-0.374437	0.051227
	C8545	C	0.920968	-0.374578	0.058967
	C8546	C	0.916625	-0.285130	0.062312
	C8547	C	0.908131	-0.285165	0.069264
	C8548	C	0.903850	-0.374711	0.072908
	C8549	C	0.908181	-0.464095	0.069482
	C8550	C	0.916678	-0.464044	0.062543
	C8551	C	0.894807	-0.374481	0.080817
	C8552	C	0.932285	-0.124601	0.008354
	C8553	C	0.924509	-0.124594	-0.006681
	C8554	C	0.920883	-0.035638	-0.013947
	C8555	C	0.913579	-0.035632	-0.027612
	C8556	C	0.909730	-0.124609	-0.034286
	C8557	C	0.913442	-0.213600	-0.027242
	C8558	C	0.920746	-0.213663	-0.013576
	C8559	C	0.901769	-0.124846	-0.048809
	C8560	C	0.957271	-0.124597	0.018359
	C8561	C	0.966331	-0.124773	0.010458
	C8562	C	0.970618	-0.214316	0.006858
	C8563	C	0.979113	-0.214439	-0.000137
	C8564	C	0.983444	-0.125000	-0.003624
	C8565	C	0.979167	-0.035592	-0.000029
	C8566	C	0.970666	-0.035413	0.006968
	C8567	C	0.992536	-0.125207	-0.011349
	H8568	H	0.982411	-0.283149	-0.002953
	H8569	H	0.967296	-0.283108	0.009651
	H8570	H	0.974671	-0.216741	0.107202
	H8571	H	0.962871	-0.216513	0.080379
	H8572	H	0.945009	-0.374105	0.010134
	H8573	H	0.942205	-0.124566	0.059705
	H8574	H	0.882556	-0.124875	0.072483
	H8575	H	1.004923	-0.374832	-0.002884
	H8576	H	0.923502	-0.282593	-0.008162
	H8577	H	0.910560	-0.282745	-0.032398
	H8578	H	0.904794	-0.216269	0.071993
	H8579	H	0.919921	-0.216243	0.059456
	H8580	H	0.910838	0.033379	-0.033082
	H8581	H	0.923765	0.033257	-0.008841
	H8582	H	0.920036	-0.532767	0.059925
	H8583	H	0.904905	-0.532991	0.072383
	H8584	H	0.962868	-0.532827	0.080256
	H8585	H	0.974716	-0.532499	0.107087
	H8586	H	0.967381	0.033667	0.009868
	H8587	H	0.982498	0.032942	-0.002730
	Al8588	Al	0.943715	0.000592	0.035014
	Al8589	Al	0.943679	0.250398	0.034921
	Al8590	Al	0.889303	0.250530	-0.073316
	Al8591	Al	0.889318	-0.000578	-0.073234
	O8592	O	0.951908	0.041184	0.056156
	O8593	O	0.944410	0.125360	0.023119
	O8594	O	0.943014	0.375403	0.046861
	O8595	O	0.985557	0.041528	0.131505
	O8596	O	0.933611	0.041006	0.048243
	O8597	O	0.891249	0.041120	0.083883
	O8598	O	0.933617	0.209530	0.048299
	O8599	O	0.935290	0.291300	0.014150
	O8600	O	0.898534	0.291229	-0.054436
	O8601	O	0.951925	0.209350	0.056079
	O8602	O	0.953714	0.291294	0.021477
	O8603	O	0.996063	0.290988	-0.014293
	O8604	O	0.891223	0.209444	0.083746
	O8605	O	0.935302	0.459380	0.014102
	O8606	O	0.898638	0.459141	-0.054516
	O8607	O	0.996075	0.459306	-0.014413
	O8608	O	0.953718	0.459776	0.021599
	O8609	O	0.985566	0.209539	0.131533
	O8610	O	0.881907	0.375413	0.085532
	O8611	O	1.005452	0.125193	-0.015896
	C8612	C	0.972109	0.214366	0.101299
	C8613	C	0.975498	0.125187	0.109010
	C8614	C	0.972058	0.036056	0.101339
	C8615	C	0.965391	0.036236	0.086298
	C8616	C	0.961960	0.125436	0.078672
	C8617	C	0.965430	0.214452	0.086283
	C8618	C	0.954763	0.125468	0.062337
	C8619	C	0.982706	0.125562	0.125288
	C8620	C	0.930044	0.125154	0.051167
	C8621	C	0.920984	0.125296	0.058939
	C8622	C	0.916679	0.214647	0.062491
	C8623	C	0.908184	0.214772	0.069524
	C8624	C	0.903854	0.125241	0.073040
	C8625	C	0.908155	0.035851	0.069453
	C8626	C	0.916648	0.035873	0.062424
	C8627	C	0.894796	0.125564	0.080899
	C8628	C	0.932265	0.375375	0.008293
	C8629	C	0.924509	0.375017	-0.006781
	C8630	C	0.920770	0.463945	-0.013813
	C8631	C	0.913492	0.463865	-0.027473
	C8632	C	0.909750	0.375030	-0.034433
	C8633	C	0.913469	0.286244	-0.027347
	C8634	C	0.920746	0.286125	-0.013694
	C8635	C	0.901757	0.375105	-0.048907
	C8636	C	0.957266	0.375474	0.018505
	C8637	C	0.966349	0.375584	0.010713
	C8638	C	0.970619	0.286125	0.007024
	C8639	C	0.979107	0.286272	-0.000064
	C8640	C	0.983449	0.375492	-0.003544
	C8641	C	0.979186	0.464829	0.000133
	C8642	C	0.970698	0.464838	0.007220
	C8643	C	0.992511	0.375269	-0.011389
	H8644	H	0.982376	0.217488	-0.003040
	H8645	H	0.967250	0.217304	0.009626
	H8646	H	0.974748	0.283112	0.107088
	H8647	H	0.962909	0.283424	0.080364
	H8648	H	0.945083	0.125658	0.010116
	H8649	H	0.942376	0.374777	0.059863
	H8650	H	0.882542	0.375478	0.072549
	H8651	H	1.004646	0.125324	-0.002906
	H8652	H	0.923537	0.217097	-0.008295
	H8653	H	0.910589	0.217330	-0.032548
	H8654	H	0.904892	0.283715	0.072349
	H8655	H	0.919986	0.283707	0.059720
	H8656	H	0.910655	0.532879	-0.032757
	H8657	H	0.923588	0.532742	-0.008439
	H8658	H	0.919939	-0.033322	0.059612
	H8659	H	0.904850	-0.033066	0.072252
	H8660	H	0.962806	-0.032869	0.080501
	H8661	H	0.974663	-0.032832	0.107115
	H8662	H	0.967402	0.533806	0.009968
	H8663	H	0.982503	0.533636	-0.002665
	Al8664	Al	0.931238	-0.499115	0.214976
	Al8665	Al	0.931297	-0.249246	0.214949
	Al8666	Al	0.881242	-0.249433	0.097329
	Al8667	Al	0.881201	-0.499684	0.097273
	O8668	O	0.939654	-0.458269	0.235751
	O8669	O	0.931991	-0.374269	0.203085
	O8670	O	0.930654	-0.123981	0.226852
	O8671	O	0.976335	-0.458213	0.304475
	O8672	O	0.921270	-0.458221	0.228468
	O8673	O	0.878986	-0.458489	0.264411
	O8674	O	0.921227	-0.289993	0.228266
	O8675	O	0.923115	-0.208436	0.193735
	O8676	O	0.889400	-0.209032	0.118507
	O8677	O	0.939689	-0.290053	0.235790
	O8678	O	0.941356	-0.208454	0.201547
	O8679	O	0.983716	-0.208792	0.166201
	O8680	O	0.878913	-0.290049	0.264213
	O8681	O	0.923055	-0.040454	0.193854
	O8682	O	0.889440	-0.040736	0.118347
	O8683	O	0.983738	-0.040308	0.166158
	O8684	O	0.941355	-0.039967	0.201700
	O8685	O	0.976287	-0.290399	0.304490
	O8686	O	0.869469	-0.124511	0.265684
	O8687	O	0.993078	-0.374268	0.164577
	C8688	C	0.961417	-0.285244	0.277472
	C8689	C	0.965198	-0.374553	0.284360
	C8690	C	0.961482	-0.463685	0.277319
	C8691	C	0.954214	-0.463615	0.263615
	C8692	C	0.950464	-0.374388	0.256648
	C8693	C	0.954152	-0.285230	0.263770
	C8694	C	0.942732	-0.374428	0.241580
	C8695	C	0.973154	-0.374312	0.298911
	C8696	C	0.917687	-0.374018	0.231315
	C8697	C	0.908631	-0.374440	0.239196
	C8698	C	0.904304	-0.285113	0.242657
	C8699	C	0.895832	-0.284944	0.249797
	C8700	C	0.891552	-0.374228	0.253480
	C8701	C	0.895867	-0.463615	0.249938
	C8702	C	0.904335	-0.463672	0.242808
	C8703	C	0.882490	-0.374230	0.261326
	C8704	C	0.920222	-0.124490	0.187597
	C8705	C	0.912988	-0.124528	0.171357
	C8706	C	0.909614	-0.035538	0.163563
	C8707	C	0.902949	-0.035662	0.148502
	C8708	C	0.899474	-0.124717	0.140930
	C8709	C	0.902871	-0.213737	0.148722
	C8710	C	0.909542	-0.213706	0.163754
	C8711	C	0.892258	-0.124819	0.124680
	C8712	C	0.944904	-0.124092	0.198698
	C8713	C	0.953964	-0.124142	0.190879
	C8714	C	0.958275	-0.213686	0.187375
	C8715	C	0.966774	-0.213623	0.180410
	C8716	C	0.971097	-0.124165	0.176907
	C8717	C	0.966783	-0.034694	0.180434
	C8718	C	0.958287	-0.034793	0.187435
	C8719	C	0.980176	-0.124478	0.169111
	H8720	H	0.970088	-0.282466	0.177640
	H8721	H	0.954967	-0.282774	0.190159
	H8722	H	0.964210	-0.216016	0.282912
	H8723	H	0.951329	-0.216077	0.258475
	H8724	H	0.932865	-0.373729	0.190085
	H8725	H	0.930117	-0.123980	0.239970
	H8726	H	0.870028	-0.124800	0.252684
	H8727	H	0.992520	-0.373957	0.177601
	H8728	H	0.912075	-0.282605	0.169709
	H8729	H	0.900267	-0.282727	0.142956
	H8730	H	0.892511	-0.216398	0.252542
	H8731	H	0.907624	-0.216294	0.239762
	H8732	H	0.900416	0.033233	0.142542
	H8733	H	0.912236	0.033513	0.169374
	H8734	H	0.907633	-0.532349	0.239958
	H8735	H	0.892566	-0.532635	0.252743
	H8736	H	0.951454	-0.532654	0.258120
	H8737	H	0.964330	-0.532865	0.282609
	H8738	H	0.954998	0.034121	0.190363
	H8739	H	0.970082	0.034379	0.177738
	Al8740	Al	0.931229	0.000799	0.214937
	Al8741	Al	0.931222	0.250866	0.214917
	Al8742	Al	0.881224	0.250461	0.097299
	Al8743	Al	0.881208	0.000553	0.097298
	O8744	O	0.939598	0.042111	0.235804
	O8745	O	0.931954	0.125865	0.203121
	O8746	O	0.930555	0.375812	0.226747
	O8747	O	0.976314	0.042061	0.304334
	O8748	O	0.921181	0.041725	0.228349
	O8749	O	0.878878	0.041501	0.264302
	O8750	O	0.921168	0.210087	0.228287
	O8751	O	0.923023	0.291802	0.193786
	O8752	O	0.889421	0.291430	0.118403
	O8753	O	0.939632	0.210073	0.235762
	O8754	O	0.941313	0.291355	0.201473
	O8755	O	0.983714	0.290990	0.166217
	O8756	O	0.878917	0.209923	0.264275
	O8757	O	0.923052	0.459860	0.193783
	O8758	O	0.889398	0.459583	0.118385
	O8759	O	0.983733	0.459481	0.166177
	O8760	O	0.941334	0.459847	0.201594
	O8761	O	0.976277	0.210003	0.304530
	O8762	O	0.869460	0.375973	0.265723
	O8763	O	0.993104	0.125851	0.164603
	C8764	C	0.961410	0.214903	0.277417
	C8765	C	0.965166	0.126108	0.284364
	C8766	C	0.961449	0.037039	0.277342
	C8767	C	0.954165	0.037054	0.263642
	C8768	C	0.950410	0.125790	0.256696
	C8769	C	0.954132	0.214696	0.263726
	C8770	C	0.942667	0.126079	0.241586
	C8771	C	0.973144	0.126249	0.298886
	C8772	C	0.917628	0.125854	0.231321
	C8773	C	0.908586	0.125734	0.239248
	C8774	C	0.904272	0.215061	0.242736
	C8775	C	0.895785	0.215025	0.249802
	C8776	C	0.891499	0.125603	0.253458
	C8777	C	0.895830	0.036184	0.250060
	C8778	C	0.904312	0.036286	0.242969
	C8779	C	0.882449	0.125680	0.261312
	C8780	C	0.920197	0.376078	0.187556
	C8781	C	0.912988	0.375764	0.171311
	C8782	C	0.909583	0.464650	0.163535
	C8783	C	0.902906	0.464645	0.148517
	C8784	C	0.899446	0.375682	0.140927
	C8785	C	0.902843	0.286685	0.148672
	C8786	C	0.909526	0.286728	0.163712
	C8787	C	0.892260	0.375534	0.124630
	C8788	C	0.944893	0.375602	0.198634
	C8789	C	0.953971	0.375657	0.190930
	C8790	C	0.958282	0.286159	0.187365
	C8791	C	0.966781	0.286045	0.180355
	C8792	C	0.971101	0.375642	0.176951
	C8793	C	0.966781	0.465174	0.180476
	C8794	C	0.958289	0.465159	0.187482
	C8795	C	0.980168	0.375360	0.169121
	H8796	H	0.970066	0.217080	0.177449
	H8797	H	0.954961	0.217109	0.190065
	H8798	H	0.964255	0.283852	0.282663
	H8799	H	0.951332	0.283757	0.258403
	H8800	H	0.932797	0.126308	0.190235
	H8801	H	0.930039	0.375794	0.239813
	H8802	H	0.869981	0.375782	0.252667
	H8803	H	0.992440	0.125947	0.177611
	H8804	H	0.912084	0.217781	0.169624
	H8805	H	0.900244	0.217820	0.142842
	H8806	H	0.892512	0.283990	0.252565
	H8807	H	0.907567	0.284132	0.239882
	H8808	H	0.900365	0.533981	0.142608
	H8809	H	0.912193	0.533825	0.169295
	H8810	H	0.907635	-0.032811	0.240241
	H8811	H	0.892538	-0.032624	0.252977
	H8812	H	0.951402	-0.031738	0.258196
	H8813	H	0.964292	-0.031714	0.282578
	H8814	H	0.955003	0.534103	0.190322
	H8815	H	0.970080	0.534318	0.177689
	Al8816	Al	0.923167	-0.499402	0.385652
	Al8817	Al	0.923181	-0.248582	0.385875
	Al8818	Al	0.868856	-0.249116	0.277694
	Al8819	Al	0.868857	-0.499245	0.277647
	O8820	O	0.933353	-0.458385	0.402382
	O8821	O	0.923190	-0.373727	0.373484
	O8822	O	0.923418	-0.123930	0.398081
	O8823	O	0.980468	-0.458776	0.405298
	O8824	O	0.913743	-0.458541	0.401204
	O8825	O	0.870089	-0.458199	0.432358
	O8826	O	0.913742	-0.289998	0.401291
	O8827	O	0.913863	-0.207941	0.367053
	O8828	O	0.877240	-0.208300	0.298441
	O8829	O	0.933347	-0.290031	0.402558
	O8830	O	0.932641	-0.208239	0.370028
	O8831	O	0.976201	-0.208134	0.338550
	O8832	O	0.870150	-0.289641	0.432452
	O8833	O	0.913881	-0.039988	0.367105
	O8834	O	0.877156	-0.040312	0.298532
	O8835	O	0.976146	-0.039869	0.338477
	O8836	O	0.932629	-0.039990	0.370036
	O8837	O	0.980450	-0.290347	0.405274
	O8838	O	0.860705	-0.123807	0.436045
	O8839	O	0.985962	-0.373893	0.335461
	C8840	C	0.961581	-0.284497	0.403554
	C8841	C	0.966371	-0.374592	0.403455
	C8842	C	0.961569	-0.464500	0.403653
	C8843	C	0.952240	-0.464347	0.404027
	C8844	C	0.947458	-0.374313	0.404238
	C8845	C	0.952249	-0.284398	0.403958
	C8846	C	0.937342	-0.374270	0.403053
	C8847	C	0.976478	-0.374624	0.404769
	C8848	C	0.910080	-0.374342	0.403843
	C8849	C	0.900752	-0.374580	0.410683
	C8850	C	0.896283	-0.284634	0.413641
	C8851	C	0.887522	-0.284385	0.419419
	C8852	C	0.883024	-0.374311	0.422299
	C8853	C	0.887481	-0.464282	0.419167
	C8854	C	0.896244	-0.464388	0.413417
	C8855	C	0.873736	-0.374151	0.429509
	C8856	C	0.910752	-0.123901	0.361478
	C8857	C	0.902796	-0.123719	0.346913
	C8858	C	0.899010	-0.034795	0.340037
	C8859	C	0.891719	-0.034851	0.326403
	C8860	C	0.888013	-0.123946	0.319317
	C8861	C	0.891798	-0.212905	0.326201
	C8862	C	0.899096	-0.212866	0.339806
	C8863	C	0.880273	-0.123994	0.304274
	C8864	C	0.936253	-0.124008	0.367163
	C8865	C	0.945493	-0.123959	0.359797
	C8866	C	0.949973	-0.213505	0.356761
	C8867	C	0.958708	-0.213547	0.350876
	C8868	C	0.963194	-0.124040	0.347952
	C8869	C	0.958693	-0.034460	0.350793
	C8870	C	0.949948	-0.034362	0.356666
	C8871	C	0.972500	-0.124122	0.341155
	H8872	H	0.962086	-0.282794	0.348582
	H8873	H	0.946610	-0.283199	0.359062
	H8874	H	0.965179	-0.214491	0.403310
	H8875	H	0.948642	-0.214332	0.403980
	H8876	H	0.923433	-0.373741	0.360329
	H8877	H	0.924034	-0.124197	0.411263
	H8878	H	0.860832	-0.123491	0.422807
	H8879	H	0.986783	-0.374179	0.348608
	H8880	H	0.902001	-0.281725	0.344938
	H8881	H	0.889049	-0.281800	0.320703
	H8882	H	0.884163	-0.214762	0.421733
	H8883	H	0.899706	-0.214967	0.411453
	H8884	H	0.888897	0.034176	0.321059
	H8885	H	0.901848	0.034008	0.345329
	H8886	H	0.899612	-0.533844	0.411003
	H8887	H	0.884069	-0.533995	0.421270
	H8888	H	0.948628	-0.534274	0.404074
	H8889	H	0.965161	-0.534743	0.403459
	H8890	H	0.946574	0.035307	0.358937
	H8891	H	0.962083	0.035108	0.348379
	Al8892	Al	0.923167	0.000919	0.385871
	Al8893	Al	0.923190	0.251552	0.385662
	Al8894	Al	0.868853	0.250794	0.277641
	Al8895	Al	0.868825	0.000507	0.277654
	O8896	O	0.933391	0.042371	0.402421
	O8897	O	0.923134	0.125985	0.373397
	O8898	O	0.923422	0.376189	0.397857
	O8899	O	0.980520	0.041870	0.405407
	O8900	O	0.913698	0.041849	0.401160
	O8901	O	0.870129	0.042316	0.432419
	O8902	O	0.913689	0.210349	0.401029
	O8903	O	0.913900	0.291949	0.366899
	O8904	O	0.877158	0.291610	0.298477
	O8905	O	0.933404	0.210599	0.402297
	O8906	O	0.932664	0.291356	0.369864
	O8907	O	0.976206	0.291938	0.338735
	O8908	O	0.870136	0.210588	0.432466
	O8909	O	0.913859	0.459946	0.366958
	O8910	O	0.877130	0.459809	0.298651
	O8911	O	0.976205	0.460364	0.338701
	O8912	O	0.932583	0.459956	0.369687
	O8913	O	0.980532	0.210129	0.405238
	O8914	O	0.860646	0.375990	0.436100
	O8915	O	0.985901	0.125869	0.335339
	C8916	C	0.961617	0.216045	0.403476
	C8917	C	0.966415	0.126167	0.403446
	C8918	C	0.961600	0.036266	0.403613
	C8919	C	0.952267	0.036375	0.404060
	C8920	C	0.947493	0.126374	0.404208
	C8921	C	0.952291	0.216256	0.403888
	C8922	C	0.937401	0.126479	0.403073
	C8923	C	0.976525	0.125952	0.404685
	C8924	C	0.910040	0.126193	0.403747
	C8925	C	0.900738	0.126244	0.410609
	C8926	C	0.896249	0.216044	0.413406
	C8927	C	0.887491	0.216101	0.419199
	C8928	C	0.883021	0.126343	0.422303
	C8929	C	0.887488	0.036412	0.419270
	C8930	C	0.896249	0.036349	0.413469
	C8931	C	0.873744	0.126412	0.429567
	C8932	C	0.910717	0.375979	0.361388
	C8933	C	0.902754	0.375700	0.346895
	C8934	C	0.898981	0.464825	0.340045
	C8935	C	0.891671	0.464610	0.326392
	C8936	C	0.887969	0.375558	0.319325
	C8937	C	0.891685	0.286471	0.326309
	C8938	C	0.898993	0.286762	0.339956
	C8939	C	0.880183	0.375547	0.304348
	C8940	C	0.936234	0.375835	0.366948
	C8941	C	0.945505	0.376246	0.359727
	C8942	C	0.949952	0.286458	0.356645
	C8943	C	0.958695	0.286134	0.350844
	C8944	C	0.963203	0.375866	0.348081
	C8945	C	0.958737	0.465740	0.350988
	C8946	C	0.949994	0.465995	0.356764
	C8947	C	0.972534	0.376056	0.341275
	H8948	H	0.962061	0.216383	0.348484
	H8949	H	0.946526	0.216944	0.358828
	H8950	H	0.965218	0.286095	0.403122
	H8951	H	0.948697	0.286354	0.403968
	H8952	H	0.923312	0.124982	0.360213
	H8953	H	0.923995	0.376010	0.411051
	H8954	H	0.860774	0.376187	0.422869
	H8955	H	0.986630	0.125392	0.348494
	H8956	H	0.901815	0.217701	0.345307
	H8957	H	0.888865	0.217428	0.321010
	H8958	H	0.884141	0.286075	0.421510
	H8959	H	0.899642	0.285597	0.411001
	H8960	H	0.888840	0.533471	0.321123
	H8961	H	0.901761	0.533938	0.345430
	H8962	H	0.899595	-0.033459	0.411081
	H8963	H	0.884099	-0.033088	0.421596
	H8964	H	0.948648	-0.033563	0.404206
	H8965	H	0.965193	-0.033715	0.403403
	H8966	H	0.946605	0.535741	0.358921
	H8967	H	0.962178	0.535209	0.348810
	Al8968	Al	0.928635	-0.499441	0.482966
	Al8969	Al	0.928614	-0.250008	0.482865
	Al8970	Al	0.860690	-0.249296	0.448332
	Al8971	Al	0.860685	-0.498328	0.448328
	O8972	O	0.939295	-0.458869	0.497992
	O8973	O	0.927976	-0.374769	0.470556
	O8974	O	0.929291	-0.124747	0.495168
	O8975	O	0.986402	-0.458828	0.500275
	O8976	O	0.919562	-0.458467	0.499784
	O8977	O	0.875116	-0.458151	0.528329
	O8978	O	0.919538	-0.290397	0.499806
	O8979	O	0.917947	-0.209232	0.467753
	O8980	O	0.870840	-0.207738	0.465109
	O8981	O	0.939227	-0.290721	0.498091
	O8982	O	0.937672	-0.208763	0.465945
	O8983	O	0.982074	-0.208567	0.437293
	O8984	O	0.875150	-0.290091	0.528364
	O8985	O	0.918020	-0.040791	0.467748
	O8986	O	0.870900	-0.039360	0.464992
	O8987	O	0.982126	-0.040577	0.437446
	O8988	O	0.937675	-0.040600	0.465795
	O8989	O	0.986395	-0.290375	0.500135
	O8990	O	0.865459	-0.124257	0.533043
	O8991	O	0.991722	-0.374398	0.432812
	C8992	C	0.967526	-0.284581	0.498835
	C8993	C	0.972292	-0.374692	0.498649
	C8994	C	0.967486	-0.464644	0.499044
	C8995	C	0.958164	-0.464541	0.499657
	C8996	C	0.953379	-0.374417	0.499772
	C8997	C	0.958195	-0.284497	0.499441
	C8998	C	0.943259	-0.374516	0.498665
	C8999	C	0.982411	-0.374658	0.499634
	C9000	C	0.915849	-0.374479	0.502483
	C9001	C	0.906399	-0.374443	0.509050
	C9002	C	0.901815	-0.284514	0.511597
	C9003	C	0.892912	-0.284465	0.516457
	C9004	C	0.888275	-0.374164	0.519004
	C9005	C	0.892860	-0.464063	0.516367
	C9006	C	0.901775	-0.464206	0.511514
	C9007	C	0.878823	-0.374036	0.525667
	C9008	C	0.914005	-0.124839	0.467149
	C9009	C	0.903883	-0.124196	0.465902
	C9010	C	0.899101	-0.033969	0.465868
	C9011	C	0.889767	-0.033989	0.466302
	C9012	C	0.884973	-0.123977	0.466718
	C9013	C	0.889743	-0.214109	0.466554
	C9014	C	0.899072	-0.214038	0.466131
	C9015	C	0.874858	-0.123624	0.465657
	C9016	C	0.941381	-0.124727	0.463239
	C9017	C	0.950805	-0.124797	0.456532
	C9018	C	0.955409	-0.214513	0.453927
	C9019	C	0.964338	-0.214421	0.449000
	C9020	C	0.968961	-0.124545	0.446528
	C9021	C	0.964377	-0.034767	0.449202
	C9022	C	0.955448	-0.034880	0.454120
	C9023	C	0.978393	-0.124445	0.440032
	H9024	H	0.967743	-0.284796	0.446929
	H9025	H	0.951945	-0.284683	0.455614
	H9026	H	0.971113	-0.214606	0.498457
	H9027	H	0.954595	-0.214103	0.499636
	H9028	H	0.927182	-0.374650	0.457300
	H9029	H	0.930402	-0.124625	0.508311
	H9030	H	0.864385	-0.124487	0.519904
	H9031	H	0.992630	-0.374631	0.445989
	H9032	H	0.902657	-0.284114	0.465936
	H9033	H	0.886133	-0.284107	0.466800
	H9034	H	0.889488	-0.214243	0.518277
	H9035	H	0.905286	-0.214566	0.509711
	H9036	H	0.886162	0.035907	0.466343
	H9037	H	0.902704	0.036171	0.465501
	H9038	H	0.905181	-0.534358	0.509535
	H9039	H	0.889369	-0.534083	0.518157
	H9040	H	0.954574	-0.534566	0.499944
	H9041	H	0.971093	-0.534870	0.498819
	H9042	H	0.952019	0.035251	0.455912
	H9043	H	0.967812	0.035394	0.447242
	Al9044	Al	0.928650	0.000163	0.482874
	Al9045	Al	0.928585	0.250703	0.482910
	Al9046	Al	0.860698	0.250839	0.448390
	Al9047	Al	0.860650	0.001676	0.448306
	O9048	O	0.939303	0.041028	0.498007
	O9049	O	0.928004	0.125617	0.470622
	O9050	O	0.929276	0.375367	0.495298
	O9051	O	0.986424	0.041676	0.500402
	O9052	O	0.919628	0.041732	0.499911
	O9053	O	0.875120	0.042310	0.528314
	O9054	O	0.919563	0.209844	0.499850
	O9055	O	0.917976	0.291237	0.467770
	O9056	O	0.870849	0.292478	0.465133
	O9057	O	0.939281	0.209158	0.497908
	O9058	O	0.937649	0.291446	0.465862
	O9059	O	0.982057	0.292182	0.437499
	O9060	O	0.875209	0.210424	0.528523
	O9061	O	0.918032	0.459468	0.467771
	O9062	O	0.870929	0.460809	0.464941
	O9063	O	0.982043	0.460293	0.437380
	O9064	O	0.937621	0.459529	0.465842
	O9065	O	0.986365	0.209848	0.500462
	O9066	O	0.865401	0.375700	0.532994
	O9067	O	0.991842	0.125615	0.432878
	C9068	C	0.967489	0.215128	0.498718
	C9069	C	0.972304	0.125273	0.498583
	C9070	C	0.967519	0.035239	0.498892
	C9071	C	0.958191	0.035133	0.499363
	C9072	C	0.953380	0.125016	0.499541
	C9073	C	0.958164	0.214882	0.499196
	C9074	C	0.943274	0.125129	0.498480
	C9075	C	0.982412	0.125593	0.499877
	C9076	C	0.915882	0.125576	0.502517
	C9077	C	0.906443	0.125312	0.509121
	C9078	C	0.901874	0.215216	0.511639
	C9079	C	0.892954	0.215206	0.516567
	C9080	C	0.888330	0.125731	0.519156
	C9081	C	0.892890	0.035814	0.516503
	C9082	C	0.901817	0.035643	0.511593
	C9083	C	0.878877	0.126297	0.525775
	C9084	C	0.913991	0.375508	0.467126
	C9085	C	0.903885	0.375773	0.465857
	C9086	C	0.899122	0.465740	0.465876
	C9087	C	0.889779	0.466082	0.466370
	C9088	C	0.884973	0.376181	0.466782
	C9089	C	0.889730	0.286165	0.466605
	C9090	C	0.899072	0.285992	0.466109
	C9091	C	0.874890	0.376452	0.465634
	C9092	C	0.941341	0.375491	0.463241
	C9093	C	0.950800	0.375748	0.456678
	C9094	C	0.955404	0.285992	0.454106
	C9095	C	0.964319	0.286285	0.449252
	C9096	C	0.968912	0.376208	0.446743
	C9097	C	0.964320	0.465979	0.449337
	C9098	C	0.955410	0.465689	0.454207
	C9099	C	0.978363	0.376255	0.440102
	H9100	H	0.967775	0.216109	0.447286
	H9101	H	0.951959	0.215794	0.455833
	H9102	H	0.971081	0.285254	0.498437
	H9103	H	0.954562	0.285027	0.499336
	H9104	H	0.927270	0.125874	0.457489
	H9105	H	0.930211	0.375319	0.508486
	H9106	H	0.864486	0.375477	0.519869
	H9107	H	0.992868	0.125535	0.446040
	H9108	H	0.902628	0.215812	0.465933
	H9109	H	0.886147	0.216079	0.466852
	H9110	H	0.889519	0.285392	0.518321
	H9111	H	0.905295	0.285246	0.509710
	H9112	H	0.886202	0.536158	0.466450
	H9113	H	0.902730	0.535751	0.465531
	H9114	H	0.905233	-0.034634	0.509610
	H9115	H	0.889433	-0.034455	0.518207
	H9116	H	0.954599	-0.035113	0.499595
	H9117	H	0.971129	-0.034566	0.498741
	H9118	H	0.951936	0.535493	0.456032
	H9119	H	0.967750	0.536127	0.447430
	Al9120	Al	0.934531	-0.499985	0.577848
	Al9121	Al	0.934560	-0.249806	0.577875
	Al9122	Al	0.866147	-0.249346	0.545428
	Al9123	Al	0.866105	-0.499383	0.545359
	O9124	O	0.945168	-0.459091	0.592997
	O9125	O	0.933822	-0.374900	0.565537
	O9126	O	0.935246	-0.124641	0.590157
	O9127	O	0.992304	-0.458912	0.595083
	O9128	O	0.925484	-0.459083	0.594789
	O9129	O	0.881051	-0.458895	0.623222
	O9130	O	0.925574	-0.290898	0.594987
	O9131	O	0.923907	-0.209175	0.562817
	O9132	O	0.876752	-0.207839	0.560512
	O9133	O	0.945203	-0.290849	0.592910
	O9134	O	0.943517	-0.208924	0.560689
	O9135	O	0.987986	-0.209010	0.532291
	O9136	O	0.881068	-0.290972	0.623283
	O9137	O	0.923898	-0.040975	0.562759
	O9138	O	0.876797	-0.039622	0.560334
	O9139	O	0.987990	-0.040897	0.532344
	O9140	O	0.943602	-0.040669	0.560805
	O9141	O	0.992314	-0.290652	0.595069
	O9142	O	0.871410	-0.124561	0.627950
	O9143	O	0.997734	-0.374695	0.527607
	C9144	C	0.973407	-0.285011	0.593648
	C9145	C	0.978203	-0.374999	0.593440
	C9146	C	0.973424	-0.464922	0.593656
	C9147	C	0.964092	-0.464902	0.594215
	C9148	C	0.959296	-0.374991	0.594507
	C9149	C	0.964077	-0.285050	0.594243
	C9150	C	0.949184	-0.375060	0.593500
	C9151	C	0.988306	-0.374729	0.594487
	C9152	C	0.921850	-0.374893	0.597603
	C9153	C	0.912387	-0.375112	0.604244
	C9154	C	0.907782	-0.285396	0.606753
	C9155	C	0.898855	-0.285360	0.611561
	C9156	C	0.894250	-0.375074	0.614130
	C9157	C	0.898843	-0.464864	0.611522
	C9158	C	0.907779	-0.464983	0.606715
	C9159	C	0.884755	-0.374986	0.620510
	C9160	C	0.919890	-0.125152	0.562282
	C9161	C	0.909776	-0.125113	0.561203
	C9162	C	0.905004	-0.035068	0.561426
	C9163	C	0.895674	-0.034587	0.561881
	C9164	C	0.890866	-0.124333	0.562081
	C9165	C	0.895622	-0.214462	0.561849
	C9166	C	0.904957	-0.214799	0.561401
	C9167	C	0.880755	-0.123991	0.560994
	C9168	C	0.947243	-0.124929	0.558069
	C9169	C	0.956696	-0.125276	0.551489
	C9170	C	0.961311	-0.215098	0.548973
	C9171	C	0.970244	-0.215145	0.544108
	C9172	C	0.974838	-0.125022	0.541567
	C9173	C	0.970229	-0.035331	0.544174
	C9174	C	0.961293	-0.035274	0.549032
	C9175	C	0.984285	-0.125099	0.534985
	H9176	H	0.973662	-0.285325	0.542226
	H9177	H	0.957858	-0.285181	0.550825
	H9178	H	0.977001	-0.214852	0.593497
	H9179	H	0.960499	-0.214853	0.594623
	H9180	H	0.932743	-0.375019	0.552352
	H9181	H	0.936339	-0.124210	0.603325
	H9182	H	0.870411	-0.124030	0.614790
	H9183	H	0.998809	-0.374006	0.540727
	H9184	H	0.908520	-0.285047	0.561163
	H9185	H	0.892003	-0.284369	0.561914
	H9186	H	0.895409	-0.215248	0.613533
	H9187	H	0.911242	-0.215157	0.605136
	H9188	H	0.892098	0.035688	0.562036
	H9189	H	0.908606	0.035066	0.561146
	H9190	H	0.911270	-0.534793	0.605011
	H9191	H	0.895446	-0.535190	0.613504
	H9192	H	0.960516	-0.535161	0.594517
	H9193	H	0.977036	-0.534999	0.593446
	H9194	H	0.957867	0.034893	0.550856
	H9195	H	0.973673	0.035011	0.542315
	Al9196	Al	0.934555	0.000285	0.577730
	Al9197	Al	0.934529	0.250144	0.577759
	Al9198	Al	0.866121	0.250700	0.545375
	Al9199	Al	0.866140	0.000832	0.545348
	O9200	O	0.945207	0.040968	0.592813
	O9201	O	0.933828	0.125480	0.565378
	O9202	O	0.935194	0.374766	0.590090
	O9203	O	0.992269	0.040852	0.595177
	O9204	O	0.925530	0.041122	0.594730
	O9205	O	0.881104	0.040932	0.623326
	O9206	O	0.925563	0.209300	0.594864
	O9207	O	0.923848	0.291034	0.562805
	O9208	O	0.876713	0.292003	0.560552
	O9209	O	0.945185	0.209272	0.592877
	O9210	O	0.943519	0.291115	0.560614
	O9211	O	0.988022	0.291334	0.532427
	O9212	O	0.881113	0.209044	0.623325
	O9213	O	0.923844	0.459421	0.562781
	O9214	O	0.876766	0.460002	0.560364
	O9215	O	0.988058	0.459332	0.532406
	O9216	O	0.943587	0.459113	0.560960
	O9217	O	0.992298	0.209088	0.595093
	O9218	O	0.871408	0.375121	0.627923
	O9219	O	0.997699	0.124970	0.527833
	C9220	C	0.973420	0.214937	0.593663
	C9221	C	0.978192	0.124977	0.593469
	C9222	C	0.973401	0.035107	0.593696
	C9223	C	0.964070	0.035346	0.594252
	C9224	C	0.959295	0.125391	0.594600
	C9225	C	0.964089	0.215223	0.594224
	C9226	C	0.949167	0.125209	0.593397
	C9227	C	0.988294	0.124959	0.594590
	C9228	C	0.921831	0.125251	0.597420
	C9229	C	0.912409	0.125151	0.604115
	C9230	C	0.907791	0.214932	0.606683
	C9231	C	0.898865	0.214926	0.611553
	C9232	C	0.894256	0.124990	0.614055
	C9233	C	0.898882	0.035183	0.611529
	C9234	C	0.907805	0.035285	0.606670
	C9235	C	0.884808	0.125039	0.620671
	C9236	C	0.919865	0.375199	0.562276
	C9237	C	0.909752	0.375384	0.561190
	C9238	C	0.904979	0.465453	0.561500
	C9239	C	0.895653	0.465611	0.561999
	C9240	C	0.890847	0.375715	0.562189
	C9241	C	0.895614	0.285563	0.561890
	C9242	C	0.904944	0.285463	0.561379
	C9243	C	0.880731	0.375897	0.561018
	C9244	C	0.947245	0.375068	0.558124
	C9245	C	0.956701	0.375387	0.551469
	C9246	C	0.961354	0.285479	0.549078
	C9247	C	0.970290	0.285494	0.544235
	C9248	C	0.974874	0.375392	0.541547
	C9249	C	0.970243	0.465282	0.544031
	C9250	C	0.961310	0.465299	0.548896
	C9251	C	0.984342	0.375471	0.535068
	H9252	H	0.973753	0.215280	0.542399
	H9253	H	0.957935	0.215161	0.550952
	H9254	H	0.977042	0.284927	0.593482
	H9255	H	0.960498	0.285452	0.594429
	H9256	H	0.932806	0.125320	0.552222
	H9257	H	0.936200	0.374279	0.603207
	H9258	H	0.870447	0.374544	0.614786
	H9259	H	0.998592	0.124995	0.541083
	H9260	H	0.908533	0.215363	0.561080
	H9261	H	0.891991	0.215410	0.561934
	H9262	H	0.895448	0.285172	0.613431
	H9263	H	0.911225	0.285120	0.604764
	H9264	H	0.892069	0.535868	0.562157
	H9265	H	0.908588	0.535661	0.561277
	H9266	H	0.911221	-0.035007	0.604744
	H9267	H	0.895424	-0.034854	0.613399
	H9268	H	0.960455	-0.034764	0.594469
	H9269	H	0.976981	-0.035053	0.593546
	H9270	H	0.957847	0.535523	0.550643
	H9271	H	0.973667	0.535529	0.542053
	Al9272	Al	0.940454	-0.499683	0.672691
	Al9273	Al	0.940465	-0.249843	0.672568
	Al9274	Al	0.872053	-0.249993	0.640264
	Al9275	Al	0.872038	-0.499846	0.640195
	O9276	O	0.951102	-0.458968	0.687805
	O9277	O	0.939833	-0.375108	0.660276
	O9278	O	0.941099	-0.124572	0.684912
	O9279	O	0.998232	-0.458858	0.689627
	O9280	O	0.931522	-0.458246	0.689782
	O9281	O	0.886942	-0.458197	0.717998
	O9282	O	0.931413	-0.290452	0.689500
	O9283	O	0.929812	-0.209015	0.657443
	O9284	O	0.882711	-0.209223	0.655360
	O9285	O	0.951115	-0.290536	0.687724
	O9286	O	0.949512	-0.208983	0.655548
	O9287	O	0.993968	-0.208615	0.627222
	O9288	O	0.886985	-0.290130	0.718045
	O9289	O	0.929800	-0.040726	0.657520
	O9290	O	0.882678	-0.041080	0.655504
	O9291	O	0.993991	-0.040597	0.627382
	O9292	O	0.949433	-0.041074	0.655449
	O9293	O	0.998193	-0.290342	0.689866
	O9294	O	0.877317	-0.124684	0.722716
	O9295	O	1.003619	-0.374475	0.622525
	C9296	C	0.979318	-0.284860	0.688463
	C9297	C	0.984102	-0.374876	0.688146
	C9298	C	0.979317	-0.465062	0.688424
	C9299	C	0.969992	-0.464970	0.689061
	C9300	C	0.965214	-0.374904	0.689351
	C9301	C	0.969989	-0.284780	0.689068
	C9302	C	0.955102	-0.374709	0.688294
	C9303	C	0.994224	-0.374681	0.689264
	C9304	C	0.927765	-0.374322	0.692328
	C9305	C	0.918309	-0.374633	0.698880
	C9306	C	0.913696	-0.284742	0.701423
	C9307	C	0.904745	-0.284704	0.706272
	C9308	C	0.900113	-0.374425	0.708805
	C9309	C	0.904718	-0.464280	0.706268
	C9310	C	0.913677	-0.464409	0.701458
	C9311	C	0.890667	-0.374357	0.715325
	C9312	C	0.925819	-0.124779	0.657017
	C9313	C	0.915698	-0.124662	0.655884
	C9314	C	0.910910	-0.034707	0.656187
	C9315	C	0.901580	-0.034820	0.656708
	C9316	C	0.896787	-0.124806	0.657021
	C9317	C	0.901572	-0.214652	0.656657
	C9318	C	0.910885	-0.214459	0.656132
	C9319	C	0.886684	-0.125023	0.655962
	C9320	C	0.953163	-0.124678	0.652884
	C9321	C	0.962623	-0.124716	0.646283
	C9322	C	0.967250	-0.214631	0.643893
	C9323	C	0.976194	-0.214544	0.639074
	C9324	C	0.980813	-0.124747	0.636448
	C9325	C	0.976189	-0.034778	0.638895
	C9326	C	0.967236	-0.034906	0.643692
	C9327	C	0.990291	-0.124711	0.629919
	H9328	H	0.979644	-0.284656	0.637341
	H9329	H	0.963832	-0.285176	0.645785
	H9330	H	0.982925	-0.214859	0.688190
	H9331	H	0.966406	-0.214487	0.689312
	H9332	H	0.938980	-0.375510	0.647134
	H9333	H	0.941809	-0.124406	0.698096
	H9334	H	0.876467	-0.124641	0.709478
	H9335	H	1.004511	-0.375091	0.635767
	H9336	H	0.914485	-0.284809	0.655783
	H9337	H	0.897960	-0.284685	0.656706
	H9338	H	0.901311	-0.214353	0.708082
	H9339	H	0.917132	-0.214629	0.699583
	H9340	H	0.897969	0.035254	0.656862
	H9341	H	0.914534	0.035478	0.655919
	H9342	H	0.917096	-0.534501	0.699657
	H9343	H	0.901248	-0.534523	0.708067
	H9344	H	0.966376	-0.534912	0.689308
	H9345	H	0.982898	-0.535353	0.688156
	H9346	H	0.963778	0.035158	0.645442
	H9347	H	0.979631	0.035451	0.637036
	Al9348	Al	0.940456	0.000225	0.672551
	Al9349	Al	0.940493	0.249859	0.672583
	Al9350	Al	0.872037	0.250071	0.640285
	Al9351	Al	0.872065	0.000090	0.640322
	O9352	O	0.951079	0.040967	0.687599
	O9353	O	0.939719	0.125153	0.660240
	O9354	O	0.941130	0.375068	0.685015
	O9355	O	0.998218	0.040507	0.689840
	O9356	O	0.931430	0.041342	0.689660
	O9357	O	0.887004	0.041221	0.718109
	O9358	O	0.931432	0.209277	0.689574
	O9359	O	0.929816	0.291067	0.657674
	O9360	O	0.882714	0.290666	0.655364
	O9361	O	0.951114	0.209108	0.687718
	O9362	O	0.949515	0.290635	0.655622
	O9363	O	0.993910	0.291125	0.627178
	O9364	O	0.887001	0.209254	0.718061
	O9365	O	0.929833	0.459351	0.657653
	O9366	O	0.882690	0.458962	0.655279
	O9367	O	0.993920	0.459649	0.627183
	O9368	O	0.949441	0.458822	0.655597
	O9369	O	0.998216	0.208707	0.689715
	O9370	O	0.877299	0.375702	0.722732
	O9371	O	1.003642	0.125274	0.622558
	C9372	C	0.979332	0.214462	0.688462
	C9373	C	0.984133	0.124520	0.688230
	C9374	C	0.979329	0.034464	0.688526
	C9375	C	0.970015	0.034526	0.689118
	C9376	C	0.965198	0.124684	0.689271
	C9377	C	0.970009	0.214743	0.689074
	C9378	C	0.955106	0.124820	0.688303
	C9379	C	0.994232	0.124534	0.689175
	C9380	C	0.927722	0.125239	0.692223
	C9381	C	0.918302	0.125315	0.698881
	C9382	C	0.913676	0.215009	0.701380
	C9383	C	0.904754	0.215094	0.706219
	C9384	C	0.900134	0.125282	0.708763
	C9385	C	0.904767	0.035551	0.706331
	C9386	C	0.913685	0.035515	0.701467
	C9387	C	0.890708	0.125237	0.715453
	C9388	C	0.925828	0.375164	0.657096
	C9389	C	0.915717	0.375514	0.656047
	C9390	C	0.910909	0.465388	0.656205
	C9391	C	0.901577	0.465190	0.656696
	C9392	C	0.896802	0.375162	0.656973
	C9393	C	0.901596	0.285171	0.656785
	C9394	C	0.910934	0.285504	0.656282
	C9395	C	0.886686	0.374983	0.655910
	C9396	C	0.953175	0.374948	0.652967
	C9397	C	0.962638	0.374988	0.646312
	C9398	C	0.967238	0.285150	0.643812
	C9399	C	0.976157	0.285489	0.638990
	C9400	C	0.980749	0.375373	0.636403
	C9401	C	0.976140	0.465164	0.638912
	C9402	C	0.967231	0.464830	0.643785
	C9403	C	0.990220	0.375433	0.629802
	H9404	H	0.979611	0.215313	0.637165
	H9405	H	0.963805	0.215308	0.645752
	H9406	H	0.982925	0.284314	0.688155
	H9407	H	0.966389	0.284810	0.689383
	H9408	H	0.938719	0.125127	0.647044
	H9409	H	0.942070	0.374575	0.698226
	H9410	H	0.876429	0.376291	0.709590
	H9411	H	1.004530	0.125137	0.635727
	H9412	H	0.914529	0.215315	0.656054
	H9413	H	0.898001	0.214801	0.657015
	H9414	H	0.901304	0.285325	0.707958
	H9415	H	0.917120	0.285061	0.699387
	H9416	H	0.897967	0.535169	0.656875
	H9417	H	0.914485	0.535666	0.655883
	H9418	H	0.917114	-0.034577	0.699578
	H9419	H	0.901328	-0.034368	0.708197
	H9420	H	0.966425	-0.035688	0.689436
	H9421	H	0.982959	-0.035516	0.688233
	H9422	H	0.963796	0.535025	0.645667
	H9423	H	0.979583	0.535412	0.637074
	Al9424	Al	0.946374	-0.500118	0.767334
	Al9425	Al	0.946359	-0.250067	0.767326
	Al9426	Al	0.877954	-0.249702	0.735046
	Al9427	Al	0.877956	-0.499611	0.735093
	O9428	O	0.956968	-0.458428	0.782500
	O9429	O	0.945700	-0.375206	0.754981
	O9430	O	0.947033	-0.125354	0.779693
	O9431	O	1.004156	-0.459239	0.784921
	O9432	O	0.937275	-0.459436	0.784202
	O9433	O	0.892849	-0.457906	0.812697
	O9434	O	0.937322	-0.291347	0.784301
	O9435	O	0.935731	-0.209537	0.752313
	O9436	O	0.888579	-0.208759	0.750290
	O9437	O	0.957038	-0.290183	0.782384
	O9438	O	0.955357	-0.209011	0.750205
	O9439	O	0.999804	-0.209672	0.721943
	O9440	O	0.892978	-0.289790	0.812991
	O9441	O	0.935752	-0.041034	0.752110
	O9442	O	0.888607	-0.040582	0.750215
	O9443	O	0.999861	-0.041803	0.721907
	O9444	O	0.955400	-0.040896	0.750467
	O9445	O	1.004135	-0.290814	0.785172
	O9446	O	0.883207	-0.124394	0.817399
	O9447	O	1.009507	-0.375005	0.717290
	C9448	C	0.985272	-0.285230	0.783810
	C9449	C	0.990046	-0.375196	0.783452
	C9450	C	0.985234	-0.464960	0.783644
	C9451	C	0.975907	-0.464809	0.784127
	C9452	C	0.971118	-0.374835	0.784343
	C9453	C	0.975955	-0.285096	0.784259
	C9454	C	0.961000	-0.374464	0.783039
	C9455	C	1.000146	-0.375078	0.784507
	C9456	C	0.933610	-0.375217	0.786960
	C9457	C	0.924199	-0.375157	0.793671
	C9458	C	0.919668	-0.285059	0.796341
	C9459	C	0.910722	-0.284765	0.801235
	C9460	C	0.906080	-0.374516	0.803681
	C9461	C	0.910598	-0.464448	0.800964
	C9462	C	0.919545	-0.464763	0.796083
	C9463	C	0.896609	-0.374087	0.810175
	C9464	C	0.931756	-0.125279	0.751718
	C9465	C	0.921635	-0.124988	0.750674
	C9466	C	0.916848	-0.034991	0.750884
	C9467	C	0.907522	-0.034876	0.751528
	C9468	C	0.902720	-0.125062	0.751814
	C9469	C	0.907503	-0.215162	0.751588
	C9470	C	0.916833	-0.215019	0.751014
	C9471	C	0.892592	-0.124582	0.750789
	C9472	C	0.959102	-0.124933	0.747760
	C9473	C	0.968541	-0.124685	0.741159
	C9474	C	0.973119	-0.214430	0.738532
	C9475	C	0.982073	-0.214566	0.733706
	C9476	C	0.986699	-0.124914	0.731264
	C9477	C	0.982097	-0.035054	0.733703
	C9478	C	0.973138	-0.034875	0.738565
	C9479	C	0.996126	-0.125611	0.724580
	H9480	H	0.985471	-0.284826	0.731852
	H9481	H	0.969703	-0.284836	0.740369
	H9482	H	0.988884	-0.215327	0.783730
	H9483	H	0.972369	-0.215009	0.784513
	H9484	H	0.944743	-0.375037	0.741858
	H9485	H	0.948062	-0.125730	0.792891
	H9486	H	0.882147	-0.124242	0.804264
	H9487	H	1.010246	-0.375104	0.730473
	H9488	H	0.920427	-0.285347	0.750703
	H9489	H	0.903891	-0.285123	0.751735
	H9490	H	0.907357	-0.214134	0.803195
	H9491	H	0.923157	-0.215101	0.794668
	H9492	H	0.903918	0.035292	0.751594
	H9493	H	0.920462	0.035128	0.750472
	H9494	H	0.922906	-0.535256	0.794176
	H9495	H	0.907129	-0.534478	0.802721
	H9496	H	0.972265	-0.534393	0.784294
	H9497	H	0.988821	-0.535182	0.783445
	H9498	H	0.969724	0.035363	0.740415
	H9499	H	0.985513	0.035209	0.731797
	Al9500	Al	0.946370	0.000007	0.767384
	Al9501	Al	0.946423	0.249718	0.767500
	Al9502	Al	0.878007	0.250413	0.735035
	Al9503	Al	0.877953	0.000177	0.735062
	O9504	O	0.957034	0.041220	0.782480
	O9505	O	0.945685	0.124987	0.755180
	O9506	O	0.947015	0.375196	0.779836
	O9507	O	1.004180	0.039856	0.785294
	O9508	O	0.937316	0.040511	0.784347
	O9509	O	0.892829	0.041698	0.812695
	O9510	O	0.937373	0.208818	0.784554
	O9511	O	0.935756	0.290034	0.752439
	O9512	O	0.888650	0.291531	0.750012
	O9513	O	0.957101	0.209269	0.782457
	O9514	O	0.955382	0.290877	0.750446
	O9515	O	0.999830	0.290784	0.721780
	O9516	O	0.892927	0.209538	0.812827
	O9517	O	0.935796	0.458226	0.752173
	O9518	O	0.888670	0.459486	0.749985
	O9519	O	0.999790	0.458890	0.721719
	O9520	O	0.955506	0.459084	0.750689
	O9521	O	1.004206	0.208103	0.784865
	O9522	O	0.883207	0.375350	0.817368
	O9523	O	1.009531	0.124670	0.717202
	C9524	C	0.985304	0.214444	0.783701
	C9525	C	0.990078	0.124419	0.783539
	C9526	C	0.985283	0.034615	0.783643
	C9527	C	0.975950	0.034624	0.784114
	C9528	C	0.971174	0.124588	0.784416
	C9529	C	0.975976	0.214422	0.784199
	C9530	C	0.961060	0.125027	0.783157
	C9531	C	1.000184	0.123991	0.784487
	C9532	C	0.933653	0.124604	0.787083
	C9533	C	0.924186	0.124797	0.793659
	C9534	C	0.919592	0.214737	0.796145
	C9535	C	0.910655	0.215001	0.800983
	C9536	C	0.906041	0.125309	0.803533
	C9537	C	0.910625	0.035252	0.801036
	C9538	C	0.919572	0.035089	0.796209
	C9539	C	0.896581	0.125388	0.810132
	C9540	C	0.931806	0.374238	0.751792
	C9541	C	0.921674	0.374397	0.750691
	C9542	C	0.916924	0.464477	0.750941
	C9543	C	0.907587	0.464810	0.751408
	C9544	C	0.902769	0.375150	0.751623
	C9545	C	0.907529	0.284996	0.751606
	C9546	C	0.916858	0.284691	0.751143
	C9547	C	0.892652	0.375376	0.750590
	C9548	C	0.959144	0.374829	0.747929
	C9549	C	0.968592	0.374460	0.741266
	C9550	C	0.973178	0.284800	0.738643
	C9551	C	0.982094	0.284682	0.733694
	C9552	C	0.986681	0.374404	0.731174
	C9553	C	0.982104	0.464112	0.733813
	C9554	C	0.973195	0.464268	0.738752
	C9555	C	0.996126	0.374857	0.724502
	H9556	H	0.985501	0.214477	0.731708
	H9557	H	0.969724	0.214700	0.740441
	H9558	H	0.988911	0.284308	0.783437
	H9559	H	0.972383	0.284712	0.784450
	H9560	H	0.944442	0.124844	0.742083
	H9561	H	0.947850	0.375239	0.792907
	H9562	H	0.882372	0.375720	0.804143
	H9563	H	1.010422	0.124703	0.730377
	H9564	H	0.920452	0.214669	0.750844
	H9565	H	0.903923	0.215112	0.751761
	H9566	H	0.907209	0.285314	0.802851
	H9567	H	0.923023	0.284994	0.794337
	H9568	H	0.904000	0.534701	0.751410
	H9569	H	0.920514	0.534667	0.750474
	H9570	H	0.923036	-0.035142	0.794413
	H9571	H	0.907201	-0.034924	0.802900
	H9572	H	0.972361	-0.035521	0.784252
	H9573	H	0.988863	-0.035640	0.783347
	H9574	H	0.969783	0.534325	0.740606
	H9575	H	0.985528	0.534317	0.731930
	Al9576	Al	0.951810	-0.500190	0.864263
	Al9577	Al	0.951801	-0.250898	0.864094
	Al9578	Al	0.883877	-0.249617	0.829751
	Al9579	Al	0.883841	-0.499934	0.829740
	O9580	O	0.961055	-0.459176	0.882988
	O9581	O	0.951552	-0.375541	0.852011
	O9582	O	0.951864	-0.125217	0.876288
	O9583	O	0.997865	-0.458777	0.951239
	O9584	O	0.942424	-0.459582	0.880258
	O9585	O	0.898738	-0.458801	0.911186
	O9586	O	0.942408	-0.291131	0.880211
	O9587	O	0.941565	-0.209967	0.847427
	O9588	O	0.894416	-0.208252	0.845096
	O9589	O	0.961106	-0.291218	0.882832
	O9590	O	0.961260	-0.209583	0.848693
	O9591	O	1.004975	-0.209757	0.817954
	O9592	O	0.898766	-0.290530	0.911222
	O9593	O	0.941592	-0.041488	0.847349
	O9594	O	0.894492	-0.039936	0.844817
	O9595	O	1.004929	-0.041136	0.817887
	O9596	O	0.961237	-0.041200	0.848557
	O9597	O	0.997865	-0.290577	0.951266
	O9598	O	0.889031	-0.124932	0.914558
	O9599	O	1.014338	-0.375523	0.813993
	C9600	C	0.983251	-0.285718	0.923613
	C9601	C	0.986991	-0.374582	0.930594
	C9602	C	0.983232	-0.463604	0.923664
	C9603	C	0.975917	-0.463801	0.910067
	C9604	C	0.972181	-0.375017	0.903065
	C9605	C	0.975952	-0.285828	0.909974
	C9606	C	0.964214	-0.375158	0.888542
	C9607	C	0.994789	-0.374603	0.945551
	C9608	C	0.938790	-0.375384	0.883049
	C9609	C	0.929509	-0.375234	0.890253
	C9610	C	0.925073	-0.285479	0.893429
	C9611	C	0.916297	-0.285597	0.899108
	C9612	C	0.911735	-0.375162	0.901684
	C9613	C	0.916188	-0.465030	0.898698
	C9614	C	0.924976	-0.464952	0.893020
	C9615	C	0.902411	-0.374696	0.908484
	C9616	C	0.937601	-0.125641	0.846854
	C9617	C	0.927479	-0.125329	0.845836
	C9618	C	0.922724	-0.035282	0.846051
	C9619	C	0.913397	-0.034730	0.846485
	C9620	C	0.908578	-0.124523	0.846709
	C9621	C	0.913340	-0.214580	0.846642
	C9622	C	0.922670	-0.215093	0.846165
	C9623	C	0.898440	-0.124200	0.845530
	C9624	C	0.964896	-0.125429	0.846010
	C9625	C	0.974242	-0.125484	0.839235
	C9626	C	0.978722	-0.215380	0.836436
	C9627	C	0.987502	-0.215408	0.830803
	C9628	C	0.992004	-0.125576	0.827835
	C9629	C	0.987548	-0.035761	0.830892
	C9630	C	0.978762	-0.035721	0.836517
	C9631	C	1.001315	-0.125625	0.820707
	H9632	H	0.990886	-0.285253	0.828528
	H9633	H	0.975281	-0.284652	0.838626
	H9634	H	0.986057	-0.216719	0.928970
	H9635	H	0.973125	-0.216888	0.904690
	H9636	H	0.950896	-0.375535	0.838776
	H9637	H	0.951902	-0.124826	0.889499
	H9638	H	0.888189	-0.124554	0.901406
	H9639	H	1.014280	-0.376058	0.827231
	H9640	H	0.926258	-0.285456	0.846048
	H9641	H	0.909703	-0.284477	0.846838
	H9642	H	0.912923	-0.216129	0.901503
	H9643	H	0.928468	-0.215467	0.891336
	H9644	H	0.909803	0.035429	0.846613
	H9645	H	0.926357	0.034695	0.845833
	H9646	H	0.928313	-0.534828	0.890588
	H9647	H	0.912750	-0.534713	0.900652
	H9648	H	0.973067	-0.532671	0.904835
	H9649	H	0.986005	-0.532590	0.929103
	H9650	H	0.975392	0.033996	0.838818
	H9651	H	0.990981	0.033633	0.828718
	Al9652	Al	0.951817	-0.000096	0.863982
	Al9653	Al	0.951790	0.249004	0.864042
	Al9654	Al	0.883854	0.250256	0.829683
	Al9655	Al	0.883824	0.000610	0.829745
	O9656	O	0.961062	0.040347	0.882872
	O9657	O	0.951479	0.124502	0.851758
	O9658	O	0.951832	0.374062	0.876393
	O9659	O	0.997786	0.040986	0.951463
	O9660	O	0.942371	0.040326	0.879944
	O9661	O	0.898740	0.040921	0.911299
	O9662	O	0.942340	0.208682	0.879849
	O9663	O	0.941574	0.290189	0.847419
	O9664	O	0.894489	0.291360	0.844700
	O9665	O	0.961081	0.208203	0.882776
	O9666	O	0.961244	0.290384	0.848701
	O9667	O	1.004915	0.290218	0.817580
	O9668	O	0.898799	0.209242	0.911448
	O9669	O	0.941606	0.458845	0.847594
	O9670	O	0.894552	0.459647	0.844696
	O9671	O	1.004909	0.458746	0.817553
	O9672	O	0.961307	0.458935	0.848904
	O9673	O	0.997789	0.209194	0.951286
	O9674	O	0.889069	0.375161	0.914576
	O9675	O	1.014366	0.124728	0.814018
	C9676	C	0.983233	0.213496	0.923437
	C9677	C	0.986930	0.124665	0.930630
	C9678	C	0.983180	0.035847	0.923706
	C9679	C	0.975877	0.035554	0.910079
	C9680	C	0.972128	0.124318	0.903031
	C9681	C	0.975944	0.213155	0.909772
	C9682	C	0.964207	0.124267	0.888415
	C9683	C	0.994733	0.125015	0.945617
	C9684	C	0.938754	0.124578	0.882853
	C9685	C	0.929520	0.124265	0.890270
	C9686	C	0.925077	0.213989	0.893469
	C9687	C	0.916331	0.214449	0.899298
	C9688	C	0.911799	0.124802	0.902026
	C9689	C	0.916247	0.034950	0.898944
	C9690	C	0.924991	0.034669	0.893133
	C9691	C	0.902456	0.125066	0.908870
	C9692	C	0.937607	0.374645	0.846965
	C9693	C	0.927492	0.374817	0.845926
	C9694	C	0.922717	0.464843	0.846129
	C9695	C	0.913398	0.465190	0.846575
	C9696	C	0.908609	0.375346	0.846758
	C9697	C	0.913367	0.285371	0.846718
	C9698	C	0.922698	0.285175	0.846278
	C9699	C	0.898500	0.375400	0.845392
	C9700	C	0.964939	0.374561	0.846190
	C9701	C	0.974271	0.374738	0.839336
	C9702	C	0.978734	0.284919	0.836302
	C9703	C	0.987501	0.284756	0.830577
	C9704	C	0.992014	0.374470	0.827731
	C9705	C	0.987567	0.464317	0.830944
	C9706	C	0.978812	0.464521	0.836728
	C9707	C	1.001276	0.374601	0.820440
	H9708	H	0.990858	0.214917	0.828137
	H9709	H	0.975325	0.215389	0.838399
	H9710	H	0.986093	0.282411	0.928593
	H9711	H	0.973156	0.282098	0.904302
	H9712	H	0.950653	0.125054	0.838582
	H9713	H	0.951658	0.374330	0.889599
	H9714	H	0.888315	0.374992	0.901400
	H9715	H	1.014137	0.125357	0.827270
	H9716	H	0.926289	0.215125	0.846131
	H9717	H	0.909760	0.215493	0.846868
	H9718	H	0.912973	0.284036	0.901714
	H9719	H	0.928473	0.283934	0.891246
	H9720	H	0.909808	0.535077	0.846607
	H9721	H	0.926337	0.534725	0.845823
	H9722	H	0.928345	-0.035020	0.890667
	H9723	H	0.912796	-0.034705	0.901063
	H9724	H	0.973035	-0.033323	0.904875
	H9725	H	0.986027	-0.032874	0.929119
	H9726	H	0.975451	0.533808	0.839233
	H9727	H	0.990985	0.534125	0.828854
