data_Molecule from HDF5

_cell_length_a		140.685724
_cell_length_b		13.375817
_cell_length_c		85.235811
_cell_angle_alpha	90.002722
_cell_angle_beta	85.990276
_cell_angle_gamma	89.997474
_symmetry_space_group_name_H-M	'P 1'
_symmetry_Int_Tables_number		1

loop_
	_symmetry_equiv_pos_as_xyz
	x,y,z

loop_
	_atom_site_label
	_atom_site_type_symbol
	_atom_site_fract_x
	_atom_site_fract_y
	_atom_site_fract_z
	Al0	Al	0.057358	-0.499826	0.038642
	Al1	Al	0.057414	-0.249939	0.038567
	Al2	Al	-0.005049	-0.249718	-0.024066
	Al3	Al	-0.005052	-0.499780	-0.024080
	O4	O	0.066242	-0.458632	0.053667
	O5	O	0.058558	-0.374791	0.028557
	O6	O	0.056201	-0.125212	0.048518
	O7	O	0.111046	-0.458453	0.085932
	O8	O	0.045649	-0.458891	0.049598
	O9	O	-0.003661	-0.458758	0.044187
	O10	O	0.045701	-0.290904	0.049466
	O11	O	0.048478	-0.208929	0.023495
	O12	O	0.003857	-0.208922	-0.008988
	O13	O	0.066279	-0.290951	0.053651
	O14	O	0.069153	-0.209041	0.027691
	O15	O	0.118369	-0.208965	0.034987
	O16	O	-0.003664	-0.290492	0.044249
	O17	O	0.048472	-0.041026	0.023538
	O18	O	0.003725	-0.040862	-0.008777
	O19	O	0.118347	-0.040953	0.035021
	O20	O	0.069177	-0.040648	0.027741
	O21	O	0.110965	-0.290737	0.086051
	O22	O	-0.014163	-0.125005	0.047009
	O23	O	0.128804	-0.374670	0.034005
	C24	C	0.093054	-0.285062	0.073035
	C25	C	0.097741	-0.374619	0.076039
	C26	C	0.093087	-0.464329	0.072937
	C27	C	0.084109	-0.464506	0.067084
	C28	C	0.079440	-0.375022	0.063997
	C29	C	0.084078	-0.285262	0.067156
	C30	C	0.069987	-0.374900	0.056549
	C31	C	0.107268	-0.374606	0.083149
	C32	C	0.041479	-0.374843	0.049390
	C33	C	0.030862	-0.374832	0.048687
	C34	C	0.025876	-0.285170	0.047696
	C35	C	0.016153	-0.284928	0.045840
	C36	C	0.011149	-0.374624	0.044959
	C37	C	0.016121	-0.464438	0.046029
	C38	C	0.025845	-0.464564	0.047908
	C39	C	0.000544	-0.374635	0.044316
	C40	C	0.044737	-0.124817	0.020665
	C41	C	0.035210	-0.124655	0.013497
	C42	C	0.030567	-0.034922	0.010507
	C43	C	0.021558	-0.034859	0.004610
	C44	C	0.016941	-0.124491	0.001474
	C45	C	0.021598	-0.214062	0.004445
	C46	C	0.030593	-0.214205	0.010356
	C47	C	0.007478	-0.124818	-0.005937
	C48	C	0.073349	-0.124900	0.028001
	C49	C	0.083944	-0.125002	0.029047
	C50	C	0.088921	-0.214927	0.030113
	C51	C	0.098602	-0.215188	0.032403
	C52	C	0.103565	-0.125150	0.033596
	C53	C	0.098598	-0.035179	0.032427
	C54	C	0.088922	-0.035025	0.030145
	C55	C	0.114145	-0.125023	0.034697
	H56	H	0.102322	-0.285255	0.033205
	H57	H	0.085180	-0.284684	0.029135
	H58	H	0.096477	-0.214920	0.075409
	H59	H	0.080567	-0.215117	0.065004
	H60	H	0.059998	-0.374607	0.017954
	H61	H	0.054621	-0.124856	0.059052
	H62	H	-0.012815	-0.125171	0.036413
	H63	H	0.127294	-0.374330	0.044641
	H64	H	0.034039	-0.284488	0.012568
	H65	H	0.018165	-0.284357	0.002184
	H66	H	0.012428	-0.214997	0.044973
	H67	H	0.029673	-0.215245	0.048305
	H68	H	0.018117	0.035230	0.002408
	H69	H	0.033983	0.035239	0.012817
	H70	H	0.029563	-0.534705	0.048672
	H71	H	0.012352	-0.534153	0.045327
	H72	H	0.080615	-0.534719	0.064894
	H73	H	0.096546	-0.534529	0.075208
	H74	H	0.085196	0.035070	0.029183
	H75	H	0.102346	0.034731	0.033294
	Al76	Al	0.057382	0.000165	0.038536
	Al77	Al	0.057377	0.250008	0.038525
	Al78	Al	-0.005013	0.250562	-0.024107
	Al79	Al	-0.005078	0.000202	-0.023950
	O80	O	0.066237	0.041295	0.053678
	O81	O	0.058550	0.124923	0.028498
	O82	O	0.056238	0.375117	0.048574
	O83	O	0.110992	0.041414	0.086038
	O84	O	0.045695	0.040676	0.049500
	O85	O	-0.003668	0.040484	0.044304
	O86	O	0.045715	0.208696	0.049533
	O87	O	0.048496	0.291542	0.023519
	O88	O	0.003884	0.291547	-0.009066
	O89	O	0.066277	0.208926	0.053581
	O90	O	0.069100	0.291418	0.027634
	O91	O	0.118284	0.291349	0.035015
	O92	O	-0.003661	0.208608	0.044287
	O93	O	0.048440	0.459452	0.023648
	O94	O	0.003781	0.459347	-0.008831
	O95	O	0.118273	0.459416	0.034876
	O96	O	0.069107	0.459468	0.027688
	O97	O	0.110960	0.209142	0.086044
	O98	O	-0.014122	0.375046	0.046859
	O99	O	0.128819	0.124848	0.034048
	C100	C	0.093080	0.214669	0.072841
	C101	C	0.097731	0.125177	0.075946
	C102	C	0.093043	0.035529	0.072943
	C103	C	0.084049	0.035373	0.067093
	C104	C	0.079432	0.124925	0.063939
	C105	C	0.084084	0.214582	0.067009
	C106	C	0.069974	0.125107	0.056531
	C107	C	0.107252	0.125156	0.083183
	C108	C	0.041497	0.124697	0.049389
	C109	C	0.030880	0.124731	0.048691
	C110	C	0.025885	0.214552	0.047774
	C111	C	0.016144	0.214388	0.045967
	C112	C	0.011149	0.124529	0.045066
	C113	C	0.016142	0.034641	0.046005
	C114	C	0.025878	0.034778	0.047818
	C115	C	0.000539	0.124470	0.044395
	C116	C	0.044748	0.375454	0.020759
	C117	C	0.035247	0.375274	0.013467
	C118	C	0.030574	0.464846	0.010509
	C119	C	0.021615	0.464889	0.004580
	C120	C	0.016984	0.375396	0.001429
	C121	C	0.021656	0.285638	0.004415
	C122	C	0.030620	0.285678	0.010325
	C123	C	0.007526	0.375612	-0.006016
	C124	C	0.073286	0.375467	0.027984
	C125	C	0.083890	0.375573	0.029067
	C126	C	0.088866	0.285489	0.030072
	C127	C	0.098537	0.285377	0.032356
	C128	C	0.103500	0.375212	0.033563
	C129	C	0.098542	0.465244	0.032471
	C130	C	0.088862	0.465458	0.030175
	C131	C	0.114107	0.375307	0.034624
	H132	H	0.102280	0.215428	0.033237
	H133	H	0.085144	0.215242	0.029112
	H134	H	0.096527	0.284746	0.075060
	H135	H	0.080626	0.284702	0.064752
	H136	H	0.060112	0.125488	0.017984
	H137	H	0.054942	0.374696	0.059212
	H138	H	-0.012748	0.374453	0.036192
	H139	H	0.127155	0.124335	0.044618
	H140	H	0.034077	0.215475	0.012616
	H141	H	0.018195	0.215569	0.002108
	H142	H	0.012400	0.284285	0.045216
	H143	H	0.029634	0.284757	0.048490
	H144	H	0.018154	0.534904	0.002416
	H145	H	0.033999	0.534824	0.012940
	H146	H	0.029622	-0.035272	0.048527
	H147	H	0.012423	-0.035321	0.045252
	H148	H	0.080580	-0.034779	0.064960
	H149	H	0.096504	-0.034444	0.075240
	H150	H	0.085118	0.535343	0.029297
	H151	H	0.102265	0.535354	0.033407
	Al152	Al	0.047636	-0.499630	0.119372
	Al153	Al	0.047608	-0.250322	0.119358
	Al154	Al	-0.014882	-0.249415	0.056879
	Al155	Al	-0.014842	-0.500353	0.056741
	O156	O	0.057152	-0.458656	0.133366
	O157	O	0.048299	-0.374972	0.109470
	O158	O	0.047258	-0.125081	0.129339
	O159	O	0.100795	-0.459479	0.167963
	O160	O	0.037472	-0.458723	0.134025
	O161	O	-0.002380	-0.458846	0.187834
	O162	O	0.037380	-0.290995	0.133936
	O163	O	0.038275	-0.209336	0.105510
	O164	O	-0.005427	-0.209312	0.070882
	O165	O	0.057120	-0.290647	0.133350
	O166	O	0.058859	-0.209317	0.106818
	O167	O	0.108259	-0.208886	0.111918
	O168	O	-0.002427	-0.291144	0.187720
	O169	O	0.038220	-0.040977	0.105593
	O170	O	-0.005429	-0.041141	0.070967
	O171	O	0.108217	-0.040602	0.111909
	O172	O	0.058855	-0.041135	0.106738
	O173	O	0.100802	-0.291398	0.167901
	O174	O	-0.011953	-0.124851	0.194486
	O175	O	0.118785	-0.374908	0.111015
	C176	C	0.083321	-0.285177	0.154059
	C177	C	0.087837	-0.374750	0.157319
	C178	C	0.083345	-0.464066	0.153866
	C179	C	0.074591	-0.463843	0.147289
	C180	C	0.070091	-0.374200	0.143960
	C181	C	0.074559	-0.284854	0.147485
	C182	C	0.060796	-0.374655	0.136335
	C183	C	0.097155	-0.375443	0.164914
	C184	C	0.034014	-0.374950	0.138387
	C185	C	0.025371	-0.375220	0.149740
	C186	C	0.021195	-0.286500	0.154986
	C187	C	0.013272	-0.286568	0.165682
	C188	C	0.009327	-0.375207	0.171408
	C189	C	0.013434	-0.464004	0.166009
	C190	C	0.021352	-0.463990	0.155314
	C191	C	0.000929	-0.374991	0.183267
	C192	C	0.034597	-0.125224	0.102592
	C193	C	0.025296	-0.125460	0.094911
	C194	C	0.020814	-0.035991	0.091455
	C195	C	0.012059	-0.035749	0.084843
	C196	C	0.007520	-0.125389	0.081578
	C197	C	0.012025	-0.214986	0.084967
	C198	C	0.020785	-0.215055	0.091588
	C199	C	-0.001792	-0.125162	0.073889
	C200	C	0.063063	-0.125146	0.106887
	C201	C	0.073694	-0.124984	0.107555
	C202	C	0.078705	-0.214635	0.108528
	C203	C	0.088437	-0.214612	0.110323
	C204	C	0.093425	-0.124668	0.111158
	C205	C	0.088422	-0.034883	0.110237
	C206	C	0.078688	-0.035087	0.108438
	C207	C	0.104045	-0.124830	0.111758
	H208	H	0.092182	-0.284427	0.111037
	H209	H	0.074962	-0.284690	0.107821
	H210	H	0.086712	-0.215764	0.156694
	H211	H	0.071198	-0.215119	0.144911
	H212	H	0.049696	-0.375353	0.098851
	H213	H	0.046907	-0.124478	0.140135
	H214	H	-0.012190	-0.125569	0.183695
	H215	H	0.117212	-0.374138	0.121609
	H216	H	0.024179	-0.284460	0.094167
	H217	H	0.008636	-0.284628	0.082362
	H218	H	0.010167	-0.217651	0.169790
	H219	H	0.024210	-0.217597	0.150683
	H220	H	0.008710	0.034073	0.082196
	H221	H	0.024235	0.033511	0.093938
	H222	H	0.024482	-0.532796	0.151294
	H223	H	0.010468	-0.532909	0.170341
	H224	H	0.071235	-0.533429	0.144606
	H225	H	0.086763	-0.533775	0.156312
	H226	H	0.074936	0.034798	0.107622
	H227	H	0.092171	0.035061	0.110903
	Al228	Al	0.047642	0.000355	0.119341
	Al229	Al	0.047657	0.249586	0.119277
	Al230	Al	-0.014877	0.250228	0.056765
	Al231	Al	-0.014888	-0.000501	0.056889
	O232	O	0.057164	0.040794	0.133314
	O233	O	0.048301	0.124670	0.109415
	O234	O	0.047251	0.374898	0.129339
	O235	O	0.100818	0.040922	0.167890
	O236	O	0.037432	0.041176	0.133932
	O237	O	-0.002262	0.040532	0.187895
	O238	O	0.037452	0.208938	0.133911
	O239	O	0.038247	0.290869	0.105528
	O240	O	-0.005369	0.290954	0.070752
	O241	O	0.057150	0.209058	0.133238
	O242	O	0.058835	0.291139	0.106647
	O243	O	0.108232	0.291448	0.111994
	O244	O	-0.002372	0.208719	0.187762
	O245	O	0.038238	0.459028	0.105577
	O246	O	-0.005366	0.458984	0.070837
	O247	O	0.108179	0.459616	0.111840
	O248	O	0.058882	0.459412	0.106869
	O249	O	0.100732	0.209052	0.168130
	O250	O	-0.012030	0.375232	0.194456
	O251	O	0.118807	0.125292	0.111040
	C252	C	0.083297	0.214790	0.154110
	C253	C	0.087838	0.125169	0.157401
	C254	C	0.083380	0.035657	0.153890
	C255	C	0.074629	0.035752	0.147299
	C256	C	0.070082	0.125224	0.143981
	C257	C	0.074544	0.214850	0.147515
	C258	C	0.060778	0.124996	0.136316
	C259	C	0.097114	0.125151	0.165034
	C260	C	0.034007	0.124971	0.138250
	C261	C	0.025405	0.124947	0.149686
	C262	C	0.021300	0.214071	0.155052
	C263	C	0.013415	0.214124	0.165809
	C264	C	0.009415	0.125008	0.171431
	C265	C	0.013486	0.035999	0.166005
	C266	C	0.021376	0.035941	0.155227
	C267	C	0.000998	0.124617	0.183238
	C268	C	0.034575	0.374928	0.102630
	C269	C	0.025288	0.374708	0.094972
	C270	C	0.020783	0.464346	0.091578
	C271	C	0.012041	0.464516	0.084946
	C272	C	0.007545	0.374876	0.081523
	C273	C	0.012034	0.285156	0.084964
	C274	C	0.020787	0.284938	0.091569
	C275	C	-0.001769	0.374998	0.073846
	C276	C	0.063065	0.375038	0.106926
	C277	C	0.073666	0.374826	0.107573
	C278	C	0.078662	0.284909	0.108613
	C279	C	0.088386	0.285132	0.110433
	C280	C	0.093390	0.374977	0.111192
	C281	C	0.088365	0.464864	0.110289
	C282	C	0.078647	0.464695	0.108499
	C283	C	0.104007	0.375289	0.111750
	H284	H	0.092158	0.215246	0.111120
	H285	H	0.074883	0.214858	0.107915
	H286	H	0.086663	0.284550	0.156766
	H287	H	0.071125	0.284420	0.145029
	H288	H	0.049476	0.124859	0.098761
	H289	H	0.046989	0.375276	0.140183
	H290	H	-0.012387	0.374797	0.183853
	H291	H	0.117496	0.125461	0.121649
	H292	H	0.024151	0.215230	0.094264
	H293	H	0.008628	0.215399	0.082442
	H294	H	0.010321	0.283072	0.169934
	H295	H	0.024302	0.283115	0.150716
	H296	H	0.008602	0.534065	0.082473
	H297	H	0.024159	0.533923	0.094206
	H298	H	0.024417	-0.032932	0.151065
	H299	H	0.010471	-0.032982	0.170272
	H300	H	0.071267	-0.034040	0.144656
	H301	H	0.086800	-0.034002	0.156349
	H302	H	0.074898	0.534734	0.107714
	H303	H	0.092133	0.534893	0.110857
	Al304	Al	0.050842	-0.500144	0.266588
	Al305	Al	0.050895	-0.249906	0.266582
	Al306	Al	-0.011638	-0.249882	0.204239
	Al307	Al	-0.011674	-0.499667	0.204214
	O308	O	0.061092	-0.459444	0.278630
	O309	O	0.050457	-0.375021	0.256877
	O310	O	0.051287	-0.125064	0.276326
	O311	O	0.103135	-0.459040	0.317074
	O312	O	0.041756	-0.458652	0.283158
	O313	O	0.005035	-0.458894	0.342793
	O314	O	0.041742	-0.290840	0.283119
	O315	O	0.040719	-0.208813	0.254398
	O316	O	-0.001420	-0.208957	0.216302
	O317	O	0.061116	-0.291361	0.278639
	O318	O	0.060226	-0.209187	0.250290
	O319	O	0.099916	-0.209172	0.196263
	O320	O	0.005004	-0.290891	0.342709
	O321	O	0.040693	-0.040571	0.254476
	O322	O	-0.001394	-0.040553	0.216398
	O323	O	0.099961	-0.041451	0.196233
	O324	O	0.060186	-0.041161	0.250313
	O325	O	0.103116	-0.290707	0.317073
	O326	O	-0.004485	-0.124921	0.349861
	O327	O	0.109796	-0.375117	0.191646
	C328	C	0.086342	-0.286053	0.301584
	C329	C	0.090585	-0.375187	0.305605
	C330	C	0.086316	-0.464362	0.301697
	C331	C	0.077916	-0.464499	0.294020
	C332	C	0.073661	-0.375249	0.290078
	C333	C	0.077962	-0.286023	0.293934
	C334	C	0.064626	-0.375447	0.281842
	C335	C	0.099587	-0.374833	0.313911
	C336	C	0.038621	-0.374594	0.288063
	C337	C	0.030736	-0.374886	0.300867
	C338	C	0.026968	-0.285935	0.306936
	C339	C	0.019701	-0.285794	0.318837
	C340	C	0.015988	-0.374846	0.324994
	C341	C	0.019752	-0.463711	0.318928
	C342	C	0.027018	-0.463840	0.307035
	C343	C	0.008131	-0.374898	0.337819
	C344	C	0.037168	-0.124768	0.251276
	C345	C	0.028158	-0.124888	0.242964
	C346	C	0.023868	-0.035738	0.239131
	C347	C	0.015464	-0.035851	0.231536
	C348	C	0.011183	-0.125116	0.227669
	C349	C	0.015463	-0.214279	0.231557
	C350	C	0.023863	-0.214162	0.239161
	C351	C	0.002158	-0.124716	0.219406
	C352	C	0.063526	-0.125069	0.245733
	C353	C	0.071975	-0.124806	0.234011
	C354	C	0.076051	-0.213828	0.228528
	C355	C	0.083943	-0.214033	0.217749
	C356	C	0.087970	-0.125077	0.212159
	C357	C	0.083875	-0.036061	0.217573
	C358	C	0.075983	-0.035952	0.228346
	C359	C	0.096540	-0.125214	0.200686
	H360	H	0.087026	-0.282785	0.213572
	H361	H	0.073054	-0.282838	0.232792
	H362	H	0.089589	-0.217072	0.304588
	H363	H	0.074735	-0.216979	0.290891
	H364	H	0.049985	-0.374857	0.246219
	H365	H	0.051898	-0.124756	0.286909
	H366	H	-0.005030	-0.125177	0.339205
	H367	H	0.109664	-0.374840	0.202505
	H368	H	0.027133	-0.283163	0.242233
	H369	H	0.012222	-0.283325	0.228557
	H370	H	0.016858	-0.217039	0.323410
	H371	H	0.029756	-0.217106	0.302268
	H372	H	0.012208	0.033225	0.228520
	H373	H	0.027091	0.033143	0.242149
	H374	H	0.029859	-0.532960	0.302415
	H375	H	0.016984	-0.532680	0.323633
	H376	H	0.074639	-0.533337	0.291058
	H377	H	0.089534	-0.532890	0.304816
	H378	H	0.072908	0.033129	0.232449
	H379	H	0.086873	0.033020	0.213256
	Al380	Al	0.050888	0.000056	0.266590
	Al381	Al	0.050842	0.250107	0.266620
	Al382	Al	-0.011611	0.250094	0.204107
	Al383	Al	-0.011600	0.000181	0.204186
	O384	O	0.061081	0.041359	0.278763
	O385	O	0.050516	0.125039	0.256868
	O386	O	0.051233	0.374831	0.276323
	O387	O	0.103124	0.040858	0.317165
	O388	O	0.041765	0.040717	0.283159
	O389	O	0.004988	0.040908	0.342734
	O390	O	0.041737	0.208819	0.283184
	O391	O	0.040643	0.290679	0.254465
	O392	O	-0.001430	0.290860	0.216190
	O393	O	0.061101	0.209463	0.278707
	O394	O	0.060163	0.290882	0.250281
	O395	O	0.099916	0.291011	0.196385
	O396	O	0.004998	0.209104	0.342654
	O397	O	0.040627	0.458970	0.254496
	O398	O	-0.001435	0.458986	0.216243
	O399	O	0.099966	0.458584	0.196375
	O400	O	0.060125	0.458860	0.250231
	O401	O	0.103148	0.209122	0.317137
	O402	O	-0.004493	0.375386	0.349816
	O403	O	0.109768	0.124704	0.191760
	C404	C	0.086387	0.214005	0.301659
	C405	C	0.090616	0.124937	0.305611
	C406	C	0.086291	0.036033	0.301796
	C407	C	0.077922	0.036193	0.294082
	C408	C	0.073696	0.125219	0.290071
	C409	C	0.077997	0.214239	0.293947
	C410	C	0.064638	0.125558	0.281850
	C411	C	0.099625	0.124958	0.313949
	C412	C	0.038641	0.124605	0.288118
	C413	C	0.030761	0.124622	0.300942
	C414	C	0.027015	0.213620	0.307008
	C415	C	0.019735	0.213819	0.318883
	C416	C	0.015986	0.124766	0.324970
	C417	C	0.019733	0.035643	0.318912
	C418	C	0.027032	0.035540	0.307033
	C419	C	0.008127	0.124975	0.337827
	C420	C	0.037091	0.374641	0.251339
	C421	C	0.028100	0.374901	0.242975
	C422	C	0.023841	0.464102	0.239065
	C423	C	0.015442	0.464129	0.231425
	C424	C	0.011132	0.374897	0.227634
	C425	C	0.015420	0.285730	0.231500
	C426	C	0.023818	0.285723	0.239109
	C427	C	0.002121	0.374766	0.219334
	C428	C	0.063462	0.374927	0.245704
	C429	C	0.071898	0.375096	0.233935
	C430	C	0.075966	0.286255	0.228458
	C431	C	0.083868	0.286163	0.217701
	C432	C	0.087904	0.375060	0.212169
	C433	C	0.083847	0.464018	0.217667
	C434	C	0.075946	0.464068	0.228411
	C435	C	0.096537	0.374805	0.200761
	H436	H	0.086977	0.217253	0.213609
	H437	H	0.072962	0.217277	0.232703
	H438	H	0.089689	0.282560	0.304603
	H439	H	0.074760	0.283305	0.290883
	H440	H	0.050316	0.125204	0.246157
	H441	H	0.051649	0.375349	0.287000
	H442	H	-0.005014	0.375622	0.339112
	H443	H	0.109492	0.124399	0.202644
	H444	H	0.027048	0.216732	0.242139
	H445	H	0.012165	0.216884	0.228490
	H446	H	0.016936	0.282848	0.323464
	H447	H	0.029845	0.282730	0.302371
	H448	H	0.012201	0.532978	0.228410
	H449	H	0.027115	0.533019	0.242026
	H450	H	0.029865	-0.033363	0.302453
	H451	H	0.016934	-0.033118	0.323587
	H452	H	0.074637	-0.032745	0.291181
	H453	H	0.089496	-0.032933	0.304866
	H454	H	0.072892	0.532946	0.232593
	H455	H	0.086948	0.532822	0.213513
	Al456	Al	0.058447	-0.499832	0.422118
	Al457	Al	0.058450	-0.249770	0.422077
	Al458	Al	-0.003991	-0.249840	0.359525
	Al459	Al	-0.004046	-0.499873	0.359516
	O460	O	0.068732	-0.459085	0.433933
	O461	O	0.057886	-0.374948	0.412401
	O462	O	0.058865	-0.124939	0.431788
	O463	O	0.110706	-0.459166	0.472509
	O464	O	0.049467	-0.459239	0.438938
	O465	O	0.013027	-0.458805	0.498933
	O466	O	0.049476	-0.291111	0.438869
	O467	O	0.048146	-0.208956	0.410220
	O468	O	0.006328	-0.209036	0.371458
	O469	O	0.068754	-0.290956	0.433933
	O470	O	0.067445	-0.208844	0.405294
	O471	O	0.104254	-0.208552	0.345728
	O472	O	0.012998	-0.290691	0.498887
	O473	O	0.048153	-0.040996	0.410264
	O474	O	0.006308	-0.040748	0.371402
	O475	O	0.104205	-0.040914	0.345671
	O476	O	0.067437	-0.040878	0.405327
	O477	O	0.110644	-0.291063	0.472474
	O478	O	0.003461	-0.125043	0.506104
	O479	O	0.113729	-0.374781	0.338882
	C480	C	0.093928	-0.286330	0.456961
	C481	C	0.098151	-0.375468	0.460983
	C482	C	0.093836	-0.464431	0.457240
	C483	C	0.085493	-0.464270	0.449484
	C484	C	0.081275	-0.375239	0.445431
	C485	C	0.085581	-0.286174	0.449213
	C486	C	0.072284	-0.375129	0.437073
	C487	C	0.107144	-0.375255	0.469349
	C488	C	0.046377	-0.375207	0.443898
	C489	C	0.038595	-0.375273	0.456834
	C490	C	0.034862	-0.286446	0.462912
	C491	C	0.027623	-0.286291	0.474855
	C492	C	0.023955	-0.375077	0.481069
	C493	C	0.027672	-0.464099	0.474963
	C494	C	0.034906	-0.464153	0.462995
	C495	C	0.016111	-0.374642	0.493973
	C496	C	0.044621	-0.124691	0.407102
	C497	C	0.035674	-0.124872	0.398616
	C498	C	0.031452	-0.035582	0.394644
	C499	C	0.023103	-0.035383	0.386862
	C500	C	0.018841	-0.124531	0.382940
	C501	C	0.023076	-0.213537	0.386934
	C502	C	0.031421	-0.213742	0.394695
	C503	C	0.009856	-0.124684	0.374610
	C504	C	0.070561	-0.124953	0.400370
	C505	C	0.078440	-0.124608	0.387563
	C506	C	0.082218	-0.213574	0.381528
	C507	C	0.089503	-0.213547	0.369609
	C508	C	0.093216	-0.124708	0.363459
	C509	C	0.089448	-0.035773	0.369492
	C510	C	0.082168	-0.035752	0.381423
	C511	C	0.101098	-0.124829	0.350624
	H512	H	0.092353	-0.282477	0.365045
	H513	H	0.079417	-0.282468	0.386205
	H514	H	0.097213	-0.217475	0.459840
	H515	H	0.082362	-0.217481	0.446101
	H516	H	0.057391	-0.375378	0.401773
	H517	H	0.059131	-0.124200	0.442529
	H518	H	0.002900	-0.125457	0.495467
	H519	H	0.114139	-0.374585	0.349532
	H520	H	0.034599	-0.282772	0.397830
	H521	H	0.019823	-0.282323	0.383956
	H522	H	0.024797	-0.217397	0.479444
	H523	H	0.037611	-0.217311	0.458151
	H524	H	0.019881	0.033496	0.383845
	H525	H	0.034683	0.033091	0.397769
	H526	H	0.037701	-0.533034	0.458331
	H527	H	0.024863	-0.532851	0.479676
	H528	H	0.082223	-0.533277	0.446574
	H529	H	0.097053	-0.533391	0.460364
	H530	H	0.079352	0.033265	0.385997
	H531	H	0.092249	0.033413	0.364849
	Al532	Al	0.058460	0.000198	0.422096
	Al533	Al	0.058463	0.250053	0.422118
	Al534	Al	-0.004010	0.250073	0.359427
	Al535	Al	-0.003976	-0.000082	0.359514
	O536	O	0.068791	0.040800	0.433983
	O537	O	0.057993	0.125235	0.412389
	O538	O	0.058892	0.374902	0.431789
	O539	O	0.110640	0.041198	0.472681
	O540	O	0.049549	0.041059	0.438937
	O541	O	0.012956	0.041042	0.498874
	O542	O	0.049485	0.208808	0.438881
	O543	O	0.048136	0.290925	0.410268
	O544	O	0.006288	0.291140	0.371382
	O545	O	0.068738	0.208951	0.433964
	O546	O	0.067478	0.290802	0.405337
	O547	O	0.104261	0.290974	0.345795
	O548	O	0.012980	0.209057	0.498835
	O549	O	0.048107	0.459102	0.410261
	O550	O	0.006281	0.459208	0.371474
	O551	O	0.104208	0.458925	0.345770
	O552	O	0.067346	0.458845	0.405187
	O553	O	0.110694	0.209440	0.472510
	O554	O	0.003508	0.375250	0.506019
	O555	O	0.113808	0.124877	0.338908
	C556	C	0.093951	0.214619	0.456993
	C557	C	0.098147	0.125383	0.461087
	C558	C	0.093849	0.036093	0.457271
	C559	C	0.085489	0.035917	0.449545
	C560	C	0.081268	0.125228	0.445525
	C561	C	0.085595	0.214489	0.449262
	C562	C	0.072304	0.125162	0.437133
	C563	C	0.107124	0.125343	0.469430
	C564	C	0.046424	0.124740	0.443921
	C565	C	0.038626	0.124824	0.456818
	C566	C	0.034895	0.213526	0.462931
	C567	C	0.027629	0.213720	0.474859
	C568	C	0.023928	0.124959	0.481036
	C569	C	0.027655	0.036099	0.474927
	C570	C	0.034916	0.036017	0.463000
	C571	C	0.016084	0.124942	0.493901
	C572	C	0.044591	0.374936	0.407089
	C573	C	0.035647	0.374784	0.398642
	C574	C	0.031401	0.463829	0.394628
	C575	C	0.023066	0.463828	0.386862
	C576	C	0.018801	0.374790	0.382947
	C577	C	0.023065	0.285534	0.386867
	C578	C	0.031403	0.285556	0.394674
	C579	C	0.009832	0.375155	0.374552
	C580	C	0.070513	0.374846	0.400369
	C581	C	0.078393	0.374951	0.387533
	C582	C	0.082168	0.285855	0.381520
	C583	C	0.089477	0.285960	0.369658
	C584	C	0.093215	0.374866	0.363542
	C585	C	0.089428	0.463922	0.369579
	C586	C	0.082119	0.463982	0.381426
	C587	C	0.101091	0.374970	0.350705
	H588	H	0.092295	0.216894	0.365059
	H589	H	0.079375	0.216963	0.386228
	H590	H	0.097281	0.283736	0.459821
	H591	H	0.082402	0.283664	0.446077
	H592	H	0.057507	0.125041	0.401763
	H593	H	0.059155	0.375351	0.442476
	H594	H	0.002854	0.374800	0.495419
	H595	H	0.114444	0.124967	0.349609
	H596	H	0.034642	0.216730	0.397789
	H597	H	0.019837	0.216769	0.383722
	H598	H	0.024800	0.282584	0.479481
	H599	H	0.037683	0.282135	0.458249
	H600	H	0.019869	0.532761	0.383725
	H601	H	0.034609	0.532836	0.397734
	H602	H	0.037735	-0.032863	0.458400
	H603	H	0.024879	-0.032774	0.479587
	H604	H	0.082220	-0.032998	0.446624
	H605	H	0.097074	-0.033212	0.460349
	H606	H	0.079263	0.532685	0.386024
	H607	H	0.092217	0.532988	0.364858
	Al608	Al	0.066552	-0.500097	0.578165
	Al609	Al	0.066576	-0.250233	0.578227
	Al610	Al	0.004019	-0.249840	0.515757
	Al611	Al	0.004054	-0.499955	0.515705
	O612	O	0.076936	-0.459118	0.589995
	O613	O	0.066049	-0.375031	0.568570
	O614	O	0.066991	-0.125033	0.587924
	O615	O	0.118787	-0.458914	0.628726
	O616	O	0.057556	-0.459183	0.594971
	O617	O	0.020756	-0.459330	0.654461
	O618	O	0.057556	-0.291279	0.594971
	O619	O	0.056250	-0.209078	0.566266
	O620	O	0.014329	-0.208883	0.527643
	O621	O	0.076808	-0.291258	0.590188
	O622	O	0.075525	-0.209102	0.561371
	O623	O	0.111972	-0.208944	0.501222
	O624	O	0.020733	-0.291513	0.654399
	O625	O	0.056251	-0.040952	0.566331
	O626	O	0.014329	-0.040937	0.527535
	O627	O	0.112005	-0.041050	0.501258
	O628	O	0.075504	-0.041008	0.561292
	O629	O	0.118808	-0.290825	0.628766
	O630	O	0.011325	-0.125038	0.661325
	O631	O	0.121427	-0.374905	0.494139
	C632	C	0.102030	-0.285799	0.613280
	C633	C	0.106302	-0.374752	0.617210
	C634	C	0.102065	-0.463930	0.613203
	C635	C	0.093710	-0.464071	0.605474
	C636	C	0.089398	-0.374940	0.601644
	C637	C	0.093668	-0.285809	0.605557
	C638	C	0.080407	-0.375164	0.593272
	C639	C	0.115266	-0.374822	0.625556
	C640	C	0.054455	-0.375270	0.599912
	C641	C	0.046595	-0.375255	0.612741
	C642	C	0.042817	-0.286343	0.618793
	C643	C	0.035512	-0.286218	0.630647
	C644	C	0.031788	-0.375330	0.636769
	C645	C	0.035532	-0.464268	0.630678
	C646	C	0.042837	-0.464283	0.618828
	C647	C	0.023861	-0.375350	0.649475
	C648	C	0.052699	-0.125075	0.563157
	C649	C	0.043733	-0.124935	0.554746
	C650	C	0.039472	-0.035647	0.550829
	C651	C	0.031121	-0.035519	0.543083
	C652	C	0.026844	-0.124720	0.539158
	C653	C	0.031099	-0.214015	0.543088
	C654	C	0.039449	-0.214063	0.550835
	C655	C	0.017869	-0.124743	0.530749
	C656	C	0.078622	-0.125174	0.556373
	C657	C	0.086418	-0.125029	0.543412
	C658	C	0.090139	-0.213860	0.537291
	C659	C	0.097380	-0.213734	0.525302
	C660	C	0.101095	-0.124790	0.519197
	C661	C	0.097376	-0.035926	0.525312
	C662	C	0.090127	-0.035984	0.537297
	C663	C	0.108881	-0.125077	0.506199
	H664	H	0.100176	-0.283023	0.520638
	H665	H	0.087416	-0.283120	0.541999
	H666	H	0.105263	-0.217025	0.616283
	H667	H	0.090413	-0.217101	0.602549
	H668	H	0.065515	-0.375517	0.557914
	H669	H	0.067314	-0.125591	0.598671
	H670	H	0.011085	-0.125255	0.650603
	H671	H	0.121967	-0.375407	0.504795
	H672	H	0.042660	-0.283256	0.553869
	H673	H	0.027846	-0.282947	0.540064
	H674	H	0.032633	-0.217151	0.635184
	H675	H	0.045604	-0.217405	0.614101
	H676	H	0.027843	0.033469	0.540069
	H677	H	0.042725	0.033317	0.553834
	H678	H	0.045633	-0.533514	0.614173
	H679	H	0.032673	-0.533233	0.635229
	H680	H	0.090496	-0.533166	0.602352
	H681	H	0.105337	-0.532937	0.616159
	H682	H	0.087365	0.033182	0.542019
	H683	H	0.100163	0.033594	0.520685
	Al684	Al	0.066578	0.000049	0.578164
	Al685	Al	0.066595	0.249873	0.578257
	Al686	Al	0.004026	0.250091	0.515691
	Al687	Al	0.004015	0.000085	0.515656
	O688	O	0.076895	0.040862	0.590093
	O689	O	0.066084	0.125248	0.568571
	O690	O	0.067053	0.374997	0.587879
	O691	O	0.118808	0.040548	0.628693
	O692	O	0.057581	0.041150	0.594978
	O693	O	0.020727	0.041303	0.654394
	O694	O	0.057573	0.208976	0.594947
	O695	O	0.056253	0.290531	0.566322
	O696	O	0.014346	0.290709	0.527636
	O697	O	0.076883	0.209072	0.590166
	O698	O	0.075570	0.291127	0.561378
	O699	O	0.112085	0.291462	0.501273
	O700	O	0.020739	0.209210	0.654469
	O701	O	0.056258	0.458845	0.566277
	O702	O	0.014374	0.459033	0.527508
	O703	O	0.112040	0.459147	0.501295
	O704	O	0.075496	0.459104	0.561304
	O705	O	0.118771	0.208851	0.628764
	O706	O	0.011196	0.375247	0.661296
	O707	O	0.121510	0.124941	0.494123
	C708	C	0.102037	0.214105	0.613317
	C709	C	0.106334	0.124687	0.617102
	C710	C	0.102063	0.035492	0.613191
	C711	C	0.093708	0.035365	0.605480
	C712	C	0.089445	0.124666	0.601551
	C713	C	0.093679	0.213999	0.605576
	C714	C	0.080428	0.124807	0.593265
	C715	C	0.115287	0.124687	0.625520
	C716	C	0.054495	0.125006	0.599926
	C717	C	0.046576	0.125194	0.612697
	C718	C	0.042798	0.214236	0.618718
	C719	C	0.035503	0.214254	0.630604
	C720	C	0.031770	0.125329	0.636738
	C721	C	0.035526	0.036377	0.630681
	C722	C	0.042844	0.036244	0.618828
	C723	C	0.023851	0.125227	0.649511
	C724	C	0.052710	0.374525	0.563169
	C725	C	0.043735	0.374668	0.554759
	C726	C	0.039476	0.464141	0.550888
	C727	C	0.031120	0.464214	0.543160
	C728	C	0.026830	0.375141	0.539240
	C729	C	0.031080	0.285780	0.543123
	C730	C	0.039447	0.285528	0.550818
	C731	C	0.017891	0.374917	0.530754
	C732	C	0.078624	0.375232	0.556341
	C733	C	0.086406	0.375118	0.543409
	C734	C	0.090128	0.286011	0.537242
	C735	C	0.097365	0.286078	0.525252
	C736	C	0.101117	0.375181	0.519138
	C737	C	0.097403	0.464222	0.525321
	C738	C	0.090168	0.464143	0.537310
	C739	C	0.108930	0.375253	0.506187
	H740	H	0.100145	0.217013	0.520532
	H741	H	0.087293	0.216931	0.541839
	H742	H	0.105257	0.283021	0.616458
	H743	H	0.090374	0.282875	0.602683
	H744	H	0.065585	0.124979	0.557928
	H745	H	0.067542	0.374770	0.598535
	H746	H	0.010749	0.375076	0.650623
	H747	H	0.122039	0.124763	0.504804
	H748	H	0.042688	0.216840	0.553872
	H749	H	0.027839	0.216951	0.540054
	H750	H	0.032646	0.282959	0.635174
	H751	H	0.045638	0.283368	0.614129
	H752	H	0.027888	0.533211	0.540128
	H753	H	0.042721	0.532887	0.553961
	H754	H	0.045715	-0.032389	0.614302
	H755	H	0.032752	-0.032561	0.635315
	H756	H	0.090463	-0.033633	0.602491
	H757	H	0.105292	-0.033741	0.616228
	H758	H	0.087383	0.533392	0.541993
	H759	H	0.100227	0.532920	0.520671
	Al760	Al	0.074143	-0.500106	0.733455
	Al761	Al	0.074188	-0.250207	0.733463
	Al762	Al	0.011628	-0.249922	0.671036
	Al763	Al	0.011597	-0.499796	0.671016
	O764	O	0.084368	-0.459352	0.745618
	O765	O	0.073830	-0.375229	0.723749
	O766	O	0.074556	-0.124991	0.743135
	O767	O	0.126430	-0.459129	0.783874
	O768	O	0.064919	-0.458591	0.749844
	O769	O	0.025054	-0.458771	0.803641
	O770	O	0.064874	-0.290499	0.749811
	O771	O	0.063942	-0.209276	0.721338
	O772	O	0.021834	-0.209374	0.683162
	O773	O	0.084347	-0.291248	0.745610
	O774	O	0.083268	-0.208931	0.716832
	O775	O	0.120128	-0.209037	0.657441
	O776	O	0.025079	-0.290832	0.803699
	O777	O	0.063936	-0.041053	0.721319
	O778	O	0.021851	-0.041144	0.683191
	O779	O	0.120096	-0.040831	0.657317
	O780	O	0.083298	-0.040832	0.716811
	O781	O	0.126464	-0.291095	0.783813
	O782	O	0.015190	-0.124857	0.808308
	O783	O	0.129636	-0.375101	0.650349
	C784	C	0.109550	-0.286003	0.768682
	C785	C	0.113834	-0.375069	0.772534
	C786	C	0.109552	-0.464153	0.768659
	C787	C	0.101158	-0.464220	0.761038
	C788	C	0.096890	-0.375201	0.757120
	C789	C	0.101159	-0.286251	0.761057
	C790	C	0.087891	-0.375258	0.748801
	C791	C	0.122911	-0.375299	0.780717
	C792	C	0.061586	-0.374502	0.754367
	C793	C	0.053157	-0.374578	0.766229
	C794	C	0.049117	-0.285748	0.771769
	C795	C	0.041204	-0.285790	0.782543
	C796	C	0.037134	-0.375008	0.787934
	C797	C	0.041172	-0.463979	0.782428
	C798	C	0.049094	-0.463661	0.771668
	C799	C	0.028485	-0.374749	0.799306
	C800	C	0.060383	-0.125214	0.718249
	C801	C	0.051339	-0.125404	0.710025
	C802	C	0.047053	-0.036225	0.706206
	C803	C	0.038645	-0.035663	0.698603
	C804	C	0.034363	-0.124782	0.694744
	C805	C	0.038661	-0.213909	0.698558
	C806	C	0.047051	-0.214337	0.706165
	C807	C	0.025383	-0.125220	0.686336
	C808	C	0.086408	-0.125047	0.711891
	C809	C	0.094320	-0.125045	0.699102
	C810	C	0.098075	-0.213977	0.693021
	C811	C	0.105390	-0.214032	0.681181
	C812	C	0.109123	-0.124948	0.675118
	C813	C	0.105361	-0.035874	0.681155
	C814	C	0.098051	-0.035989	0.693010
	C815	C	0.117001	-0.124931	0.662303
	H816	H	0.108243	-0.282998	0.676574
	H817	H	0.095260	-0.283150	0.697580
	H818	H	0.112815	-0.217223	0.771654
	H819	H	0.097903	-0.217542	0.758024
	H820	H	0.073456	-0.374834	0.713043
	H821	H	0.074885	-0.124709	0.753799
	H822	H	0.015452	-0.124420	0.797515
	H823	H	0.130258	-0.375505	0.661005
	H824	H	0.050317	-0.283185	0.709121
	H825	H	0.035444	-0.282492	0.695495
	H826	H	0.038150	-0.216548	0.786754
	H827	H	0.052161	-0.216632	0.767628
	H828	H	0.035406	0.032920	0.695551
	H829	H	0.050315	0.032405	0.709208
	H830	H	0.052077	-0.532641	0.767426
	H831	H	0.038091	-0.533147	0.786501
	H832	H	0.097910	-0.533132	0.758019
	H833	H	0.112828	-0.532911	0.771641
	H834	H	0.095166	0.032992	0.697567
	H835	H	0.108149	0.032887	0.676480
	Al836	Al	0.074157	-0.000157	0.733411
	Al837	Al	0.074149	0.249953	0.733509
	Al838	Al	0.011599	0.250275	0.671067
	Al839	Al	0.011615	-0.000046	0.671024
	O840	O	0.084338	0.041270	0.745641
	O841	O	0.073732	0.124930	0.723731
	O842	O	0.074488	0.374778	0.743203
	O843	O	0.126396	0.040805	0.783879
	O844	O	0.064837	0.040755	0.749793
	O845	O	0.025056	0.041150	0.803732
	O846	O	0.064863	0.208924	0.749856
	O847	O	0.063942	0.291084	0.721359
	O848	O	0.021820	0.290961	0.683172
	O849	O	0.084340	0.209379	0.745658
	O850	O	0.083263	0.290899	0.716902
	O851	O	0.120070	0.290600	0.657375
	O852	O	0.025068	0.209073	0.803743
	O853	O	0.063881	0.459236	0.721439
	O854	O	0.021767	0.459335	0.683256
	O855	O	0.120033	0.458544	0.657359
	O856	O	0.083262	0.458915	0.716824
	O857	O	0.126420	0.208786	0.783895
	O858	O	0.015215	0.374919	0.808270
	O859	O	0.129650	0.124910	0.650207
	C860	C	0.109575	0.214312	0.768597
	C861	C	0.113858	0.125253	0.772467
	C862	C	0.109557	0.036346	0.768609
	C863	C	0.101150	0.036302	0.761017
	C864	C	0.096889	0.125297	0.757115
	C865	C	0.101162	0.214311	0.761006
	C866	C	0.087871	0.125266	0.748858
	C867	C	0.122872	0.124800	0.780750
	C868	C	0.061530	0.124812	0.754363
	C869	C	0.053107	0.124717	0.766215
	C870	C	0.049103	0.213657	0.771813
	C871	C	0.041215	0.213974	0.782590
	C872	C	0.037100	0.125046	0.787968
	C873	C	0.041133	0.035956	0.782452
	C874	C	0.049021	0.035740	0.771677
	C875	C	0.028468	0.125157	0.799419
	C876	C	0.060354	0.374964	0.718293
	C877	C	0.051341	0.375005	0.709999
	C878	C	0.047011	0.464144	0.706248
	C879	C	0.038631	0.464095	0.698589
	C880	C	0.034357	0.375024	0.694656
	C881	C	0.038691	0.285799	0.698366
	C882	C	0.047081	0.285765	0.706030
	C883	C	0.025357	0.375352	0.686310
	C884	C	0.086383	0.374909	0.711940
	C885	C	0.094291	0.374675	0.699187
	C886	C	0.098063	0.285615	0.693168
	C887	C	0.105367	0.285693	0.681309
	C888	C	0.109081	0.374743	0.675156
	C889	C	0.105333	0.463769	0.681225
	C890	C	0.098037	0.463807	0.693108
	C891	C	0.116956	0.374482	0.662338
	H892	H	0.108224	0.216637	0.676747
	H893	H	0.095274	0.216719	0.697814
	H894	H	0.112818	0.283231	0.771663
	H895	H	0.097893	0.283209	0.758072
	H896	H	0.073242	0.125814	0.713094
	H897	H	0.074650	0.375050	0.753933
	H898	H	0.015461	0.374782	0.797454
	H899	H	0.130476	0.124337	0.660748
	H900	H	0.050386	0.217155	0.708907
	H901	H	0.035485	0.217047	0.695186
	H902	H	0.038205	0.282756	0.786902
	H903	H	0.052175	0.282799	0.767694
	H904	H	0.035375	0.532996	0.695634
	H905	H	0.050249	0.533262	0.709328
	H906	H	0.052043	-0.033095	0.767389
	H907	H	0.038069	-0.032912	0.786605
	H908	H	0.097875	-0.032539	0.758070
	H909	H	0.112791	-0.032429	0.771658
	H910	H	0.095230	0.533028	0.697730
	H911	H	0.108175	0.532696	0.676583
	Al912	Al	0.077340	-0.500589	0.880851
	Al913	Al	0.077358	-0.249797	0.880756
	Al914	Al	0.014847	-0.250510	0.818292
	Al915	Al	0.014856	-0.499461	0.818180
	O916	O	0.086688	-0.458985	0.894610
	O917	O	0.077764	-0.375102	0.870875
	O918	O	0.076681	-0.125150	0.890646
	O919	O	0.130334	-0.459193	0.929191
	O920	O	0.066106	-0.459444	0.893442
	O921	O	0.016754	-0.458861	0.888060
	O922	O	0.066146	-0.290944	0.893315
	O923	O	0.067898	-0.208924	0.866715
	O924	O	0.024217	-0.209044	0.832051
	O925	O	0.086738	-0.290864	0.894585
	O926	O	0.087563	-0.209287	0.866120
	O927	O	0.127377	-0.209156	0.812262
	O928	O	0.016794	-0.291167	0.888114
	O929	O	0.067904	-0.040780	0.866627
	O930	O	0.024210	-0.041133	0.832130
	O931	O	0.127411	-0.041264	0.812377
	O932	O	0.087578	-0.041491	0.866216
	O933	O	0.130374	-0.290971	0.929111
	O934	O	0.006188	-0.124882	0.889033
	O935	O	0.137015	-0.375208	0.805633
	C936	C	0.112907	-0.285362	0.915165
	C937	C	0.117407	-0.374974	0.918547
	C938	C	0.112914	-0.464581	0.915117
	C939	C	0.104169	-0.464452	0.908545
	C940	C	0.099651	-0.374895	0.905220
	C941	C	0.104162	-0.285372	0.908584
	C942	C	0.090366	-0.374994	0.897541
	C943	C	0.126732	-0.375190	0.926207
	C944	C	0.061938	-0.375107	0.893229
	C945	C	0.051318	-0.375085	0.892512
	C946	C	0.046339	-0.285276	0.891478
	C947	C	0.036618	-0.285398	0.889615
	C948	C	0.031617	-0.375244	0.888767
	C949	C	0.036620	-0.465052	0.889636
	C950	C	0.046351	-0.464981	0.891480
	C951	C	0.020985	-0.375049	0.888208
	C952	C	0.064257	-0.124883	0.863695
	C953	C	0.054952	-0.125448	0.856042
	C954	C	0.050475	-0.035718	0.852587
	C955	C	0.041705	-0.035611	0.845994
	C956	C	0.037160	-0.125022	0.842697
	C957	C	0.041636	-0.214735	0.846113
	C958	C	0.050396	-0.214918	0.852719
	C959	C	0.027874	-0.125073	0.835034
	C960	C	0.090991	-0.125345	0.861808
	C961	C	0.099584	-0.124897	0.850333
	C962	C	0.103606	-0.214027	0.844852
	C963	C	0.111518	-0.214083	0.834107
	C964	C	0.115614	-0.125125	0.828659
	C965	C	0.111618	-0.036078	0.834240
	C966	C	0.103704	-0.035996	0.844983
	C967	C	0.124048	-0.125217	0.816859
	H968	H	0.114535	-0.283241	0.829909
	H969	H	0.100537	-0.282996	0.849048
	H970	H	0.116267	-0.215607	0.917834
	H971	H	0.100761	-0.215969	0.906030
	H972	H	0.078132	-0.375321	0.860021
	H973	H	0.075336	-0.124866	0.901300
	H974	H	0.007570	-0.124682	0.878361
	H975	H	0.137335	-0.375611	0.816334
	H976	H	0.053739	-0.284853	0.855389
	H977	H	0.038236	-0.284178	0.843657
	H978	H	0.032871	-0.215334	0.888905
	H979	H	0.050082	-0.215504	0.892204
	H980	H	0.038326	0.033986	0.843394
	H981	H	0.053870	0.034175	0.855102
	H982	H	0.050104	-0.534760	0.892173
	H983	H	0.032869	-0.535048	0.888932
	H984	H	0.100798	-0.533961	0.905894
	H985	H	0.116281	-0.534003	0.917727
	H986	H	0.100687	0.033169	0.849249
	H987	H	0.114726	0.032926	0.830143
	Al988	Al	0.077359	-0.000413	0.880752
	Al989	Al	0.077369	0.250430	0.880755
	Al990	Al	0.014844	0.249458	0.818281
	Al991	Al	0.014825	0.000432	0.818329
	O992	O	0.086696	0.040808	0.894506
	O993	O	0.077659	0.124909	0.870806
	O994	O	0.076613	0.374705	0.890767
	O995	O	0.130285	0.040525	0.929279
	O996	O	0.066106	0.040871	0.893318
	O997	O	0.016732	0.041309	0.888197
	O998	O	0.066111	0.209436	0.893373
	O999	O	0.067832	0.291131	0.866801
	O1000	O	0.024222	0.291245	0.832093
	O1001	O	0.086732	0.208955	0.894514
	O1002	O	0.087575	0.290960	0.866227
	O1003	O	0.127341	0.290827	0.812269
	O1004	O	0.016770	0.209537	0.888027
	O1005	O	0.067862	0.459052	0.866807
	O1006	O	0.024258	0.459406	0.831965
	O1007	O	0.127362	0.458696	0.812325
	O1008	O	0.087557	0.458712	0.866295
	O1009	O	0.130368	0.208514	0.929204
	O1010	O	0.006224	0.375063	0.888955
	O1011	O	0.137017	0.124842	0.805636
	C1012	C	0.112878	0.213959	0.915163
	C1013	C	0.117428	0.124507	0.918458
	C1014	C	0.112943	0.034874	0.915016
	C1015	C	0.104194	0.034990	0.908376
	C1016	C	0.099677	0.124617	0.905047
	C1017	C	0.104127	0.214139	0.908543
	C1018	C	0.090371	0.124789	0.897437
	C1019	C	0.126705	0.124441	0.926160
	C1020	C	0.061929	0.125169	0.893205
	C1021	C	0.051300	0.125519	0.892425
	C1022	C	0.046335	0.215394	0.891424
	C1023	C	0.036603	0.215096	0.889646
	C1024	C	0.031599	0.125128	0.888815
	C1025	C	0.036592	0.035306	0.889721
	C1026	C	0.046322	0.035583	0.891501
	C1027	C	0.020956	0.125321	0.888242
	C1028	C	0.064185	0.375090	0.863809
	C1029	C	0.054938	0.375155	0.856033
	C1030	C	0.050511	0.464650	0.852417
	C1031	C	0.041763	0.464752	0.845834
	C1032	C	0.037168	0.375381	0.842649
	C1033	C	0.041604	0.285829	0.846202
	C1034	C	0.050357	0.285664	0.852804
	C1035	C	0.027883	0.375160	0.834987
	C1036	C	0.090967	0.375062	0.861862
	C1037	C	0.099579	0.375065	0.850430
	C1038	C	0.103637	0.285892	0.844920
	C1039	C	0.111541	0.285708	0.834184
	C1040	C	0.115608	0.374801	0.828676
	C1041	C	0.111595	0.463954	0.834259
	C1042	C	0.103688	0.464127	0.844998
	C1043	C	0.124003	0.374883	0.816810
	H1044	H	0.114561	0.216647	0.829927
	H1045	H	0.100533	0.216929	0.849031
	H1046	H	0.116215	0.283702	0.917820
	H1047	H	0.100708	0.283690	0.906119
	H1048	H	0.077653	0.124579	0.860030
	H1049	H	0.075149	0.374906	0.901372
	H1050	H	0.007728	0.375516	0.878399
	H1051	H	0.137441	0.124503	0.816248
	H1052	H	0.053657	0.215886	0.855598
	H1053	H	0.038139	0.216272	0.843779
	H1054	H	0.032840	0.285068	0.888999
	H1055	H	0.050062	0.285374	0.892325
	H1056	H	0.038434	0.534158	0.843127
	H1057	H	0.053949	0.534291	0.854905
	H1058	H	0.050077	-0.034373	0.892365
	H1059	H	0.032835	-0.034705	0.889121
	H1060	H	0.100833	-0.034440	0.905733
	H1061	H	0.116332	-0.034904	0.917517
	H1062	H	0.100655	0.533082	0.849230
	H1063	H	0.114635	0.533398	0.830010
	Al1064	Al	0.067518	-0.500061	0.961564
	Al1065	Al	0.067524	-0.249821	0.961562
	Al1066	Al	0.005073	-0.250053	0.899021
	Al1067	Al	0.005087	-0.499634	0.898968
	O1068	O	0.076359	-0.459050	0.976720
	O1069	O	0.068683	-0.374989	0.951536
	O1070	O	0.066361	-0.124509	0.971475
	O1071	O	0.121095	-0.459280	1.008900
	O1072	O	0.055825	-0.458744	0.972368
	O1073	O	0.006623	-0.458467	0.964965
	O1074	O	0.055835	-0.290638	0.972497
	O1075	O	0.058639	-0.208990	0.946455
	O1076	O	0.013918	-0.208632	0.914106
	O1077	O	0.076480	-0.291198	0.976431
	O1078	O	0.079255	-0.209752	0.950517
	O1079	O	0.128615	-0.209731	0.955716
	O1080	O	0.006672	-0.290235	0.964992
	O1081	O	0.058721	-0.041073	0.946263
	O1082	O	0.013976	-0.040711	0.913968
	O1083	O	0.128625	-0.041603	0.955956
	O1084	O	0.079263	-0.041530	0.950552
	O1085	O	0.121173	-0.291320	1.008836
	O1086	O	-0.003846	-0.124460	0.966001
	O1087	O	0.139191	-0.374873	0.953057
	C1088	C	0.103349	-0.285320	0.995454
	C1089	C	0.107973	-0.374827	0.998573
	C1090	C	0.103324	-0.464530	0.995533
	C1091	C	0.094328	-0.464640	0.989681
	C1092	C	0.089700	-0.375131	0.986583
	C1093	C	0.094337	-0.285348	0.989622
	C1094	C	0.080142	-0.375124	0.979478
	C1095	C	0.117451	-0.375052	1.005910
	C1096	C	0.051618	-0.374672	0.972121
	C1097	C	0.041032	-0.374559	0.971062
	C1098	C	0.036046	-0.284749	0.969838
	C1099	C	0.026380	-0.284800	0.967552
	C1100	C	0.021413	-0.374722	0.966467
	C1101	C	0.026377	-0.464635	0.967733
	C1102	C	0.036057	-0.464473	0.969999
	C1103	C	0.010844	-0.374457	0.965360
	C1104	C	0.054993	-0.125016	0.943359
	C1105	C	0.045535	-0.125105	0.935959
	C1106	C	0.040860	-0.035531	0.932950
	C1107	C	0.031855	-0.035463	0.927112
	C1108	C	0.027219	-0.124924	0.924018
	C1109	C	0.031906	-0.214565	0.926969
	C1110	C	0.040902	-0.214574	0.932818
	C1111	C	0.017671	-0.124712	0.916888
	C1112	C	0.083446	-0.125619	0.950704
	C1113	C	0.094083	-0.125664	0.951305
	C1114	C	0.099086	-0.215420	0.952119
	C1115	C	0.108820	-0.215278	0.953969
	C1116	C	0.113807	-0.125447	0.954999
	C1117	C	0.108812	-0.035564	0.954083
	C1118	C	0.099081	-0.035752	0.952229
	C1119	C	0.124422	-0.125547	0.955711
	H1120	H	0.112583	-0.285240	0.954535
	H1121	H	0.095346	-0.285017	0.951294
	H1122	H	0.106842	-0.215354	0.997555
	H1123	H	0.090897	-0.215090	0.987380
	H1124	H	0.070159	-0.375092	0.940912
	H1125	H	0.064651	-0.124548	0.982049
	H1126	H	-0.002116	-0.123609	0.955411
	H1127	H	0.137761	-0.374789	0.963769
	H1128	H	0.044342	-0.284937	0.935057
	H1129	H	0.028457	-0.284570	0.924704
	H1130	H	0.022624	-0.214797	0.966575
	H1131	H	0.039749	-0.214487	0.970632
	H1132	H	0.028356	0.034611	0.924981
	H1133	H	0.044299	0.034649	0.935340
	H1134	H	0.039814	-0.534235	0.970928
	H1135	H	0.022643	-0.534689	0.966899
	H1136	H	0.090869	-0.534682	0.987451
	H1137	H	0.106807	-0.534787	0.997642
	H1138	H	0.095342	0.034353	0.951484
	H1139	H	0.112588	0.034225	0.954709
	Al1140	Al	0.067544	0.000051	0.961433
	Al1141	Al	0.067575	0.249992	0.961468
	Al1142	Al	0.005047	0.250213	0.898998
	Al1143	Al	0.005028	0.000388	0.898999
	O1144	O	0.076457	0.041401	0.976452
	O1145	O	0.068722	0.125119	0.951452
	O1146	O	0.066343	0.374820	0.971476
	O1147	O	0.121083	0.041480	1.009057
	O1148	O	0.055864	0.040867	0.972317
	O1149	O	0.006643	0.041175	0.965145
	O1150	O	0.055859	0.208921	0.972363
	O1151	O	0.058680	0.290959	0.946333
	O1152	O	0.014017	0.291561	0.913847
	O1153	O	0.076506	0.209117	0.976411
	O1154	O	0.079271	0.291100	0.950526
	O1155	O	0.128579	0.290768	0.955852
	O1156	O	0.006667	0.209134	0.965020
	O1157	O	0.058640	0.458931	0.946452
	O1158	O	0.013984	0.459276	0.913973
	O1159	O	0.128576	0.458963	0.955822
	O1160	O	0.079247	0.459223	0.950712
	O1161	O	0.121086	0.209201	1.009011
	O1162	O	-0.003894	0.375374	0.965927
	O1163	O	0.139131	0.125100	0.953190
	C1164	C	0.103316	0.214587	0.995580
	C1165	C	0.107952	0.125256	0.998661
	C1166	C	0.103302	0.035593	0.995617
	C1167	C	0.094326	0.035490	0.989714
	C1168	C	0.089693	0.124941	0.986563
	C1169	C	0.094347	0.214444	0.989639
	C1170	C	0.080222	0.125051	0.979262
	C1171	C	0.117379	0.125252	1.006108
	C1172	C	0.051660	0.124872	0.972089
	C1173	C	0.041075	0.125217	0.970992
	C1174	C	0.036101	0.214981	0.969816
	C1175	C	0.026418	0.214852	0.967566
	C1176	C	0.021437	0.125032	0.966491
	C1177	C	0.026411	0.035232	0.967725
	C1178	C	0.036094	0.035387	0.969985
	C1179	C	0.010850	0.125049	0.965380
	C1180	C	0.054963	0.374964	0.943477
	C1181	C	0.045508	0.374913	0.936034
	C1182	C	0.040823	0.464508	0.933127
	C1183	C	0.031842	0.464838	0.927206
	C1184	C	0.027218	0.375430	0.923990
	C1185	C	0.031893	0.285671	0.926926
	C1186	C	0.040874	0.285386	0.932847
	C1187	C	0.017725	0.375491	0.916783
	C1188	C	0.083463	0.375197	0.950732
	C1189	C	0.094067	0.375206	0.951283
	C1190	C	0.099052	0.285272	0.952154
	C1191	C	0.108775	0.285365	0.953988
	C1192	C	0.113767	0.375153	0.954979
	C1193	C	0.108798	0.465108	0.953987
	C1194	C	0.099073	0.465161	0.952158
	C1195	C	0.124380	0.374830	0.955670
	H1196	H	0.112520	0.215769	0.954715
	H1197	H	0.095302	0.215309	0.951456
	H1198	H	0.106781	0.284897	0.997807
	H1199	H	0.090951	0.284286	0.987266
	H1200	H	0.070283	0.125403	0.940887
	H1201	H	0.064767	0.374125	0.982077
	H1202	H	-0.002470	0.375531	0.955324
	H1203	H	0.137870	0.124869	0.963865
	H1204	H	0.044340	0.215004	0.934948
	H1205	H	0.028473	0.215616	0.924533
	H1206	H	0.022731	0.284981	0.966559
	H1207	H	0.039866	0.285025	0.970610
	H1208	H	0.028390	0.535103	0.925003
	H1209	H	0.044257	0.534478	0.935447
	H1210	H	0.039803	-0.034883	0.970909
	H1211	H	0.022683	-0.034945	0.966844
	H1212	H	0.090904	-0.034694	0.987396
	H1213	H	0.106771	-0.034330	0.997888
	H1214	H	0.095279	0.534904	0.951482
	H1215	H	0.112551	0.535237	0.954751
	Al1216	Al	0.192544	-0.499984	0.086594
	Al1217	Al	0.192494	-0.250123	0.086654
	Al1218	Al	0.130054	-0.250082	0.023989
	Al1219	Al	0.129980	-0.499743	0.024030
	O1220	O	0.201436	-0.459216	0.101602
	O1221	O	0.193638	-0.374645	0.076591
	O1222	O	0.191334	-0.124839	0.096625
	O1223	O	0.246210	-0.458674	0.133826
	O1224	O	0.180813	-0.459275	0.097566
	O1225	O	0.131633	-0.459194	0.090180
	O1226	O	0.180805	-0.291226	0.097543
	O1227	O	0.183624	-0.209136	0.071580
	O1228	O	0.139014	-0.209127	0.038953
	O1229	O	0.201411	-0.291337	0.101679
	O1230	O	0.204216	-0.209078	0.075710
	O1231	O	0.253537	-0.209067	0.080778
	O1232	O	0.131639	-0.291054	0.089979
	O1233	O	0.183628	-0.041116	0.071590
	O1234	O	0.138969	-0.041080	0.038989
	O1235	O	0.253569	-0.040695	0.080798
	O1236	O	0.204216	-0.040960	0.075670
	O1237	O	0.246136	-0.290709	0.133920
	O1238	O	0.121134	-0.124760	0.091048
	O1239	O	0.264049	-0.375174	0.078235
	C1240	C	0.228361	-0.285237	0.120471
	C1241	C	0.233003	-0.374852	0.123551
	C1242	C	0.228351	-0.464583	0.120515
	C1243	C	0.219329	-0.464750	0.114696
	C1244	C	0.214675	-0.375074	0.111682
	C1245	C	0.219346	-0.285278	0.114644
	C1246	C	0.205159	-0.375223	0.104491
	C1247	C	0.242458	-0.374791	0.130973
	C1248	C	0.176620	-0.375206	0.097257
	C1249	C	0.166034	-0.375047	0.096088
	C1250	C	0.161069	-0.285255	0.095053
	C1251	C	0.151383	-0.285132	0.092697
	C1252	C	0.146431	-0.374997	0.091450
	C1253	C	0.151395	-0.464717	0.092533
	C1254	C	0.161082	-0.464936	0.094857
	C1255	C	0.135834	-0.375088	0.090376
	C1256	C	0.179907	-0.125099	0.068652
	C1257	C	0.170474	-0.124890	0.061207
	C1258	C	0.165844	-0.035214	0.058066
	C1259	C	0.156867	-0.035341	0.052145
	C1260	C	0.152220	-0.124939	0.049066
	C1261	C	0.156857	-0.214643	0.052191
	C1262	C	0.165837	-0.214476	0.058104
	C1263	C	0.142691	-0.125078	0.041907
	C1264	C	0.208410	-0.124952	0.075821
	C1265	C	0.219010	-0.124891	0.076408
	C1266	C	0.224013	-0.214592	0.077317
	C1267	C	0.233744	-0.214516	0.079114
	C1268	C	0.238734	-0.124703	0.080014
	C1269	C	0.233736	-0.034962	0.079045
	C1270	C	0.224002	-0.035140	0.077265
	C1271	C	0.249334	-0.124792	0.080649
	H1272	H	0.237505	-0.284555	0.079862
	H1273	H	0.220262	-0.284685	0.076612
	H1274	H	0.231828	-0.215084	0.122621
	H1275	H	0.215921	-0.215021	0.112321
	H1276	H	0.195033	-0.373911	0.065905
	H1277	H	0.189723	-0.125096	0.107250
	H1278	H	0.122786	-0.124146	0.080529
	H1279	H	0.262657	-0.375066	0.088828
	H1280	H	0.169339	-0.284355	0.060250
	H1281	H	0.153455	-0.284828	0.049803
	H1282	H	0.147683	-0.215013	0.091813
	H1283	H	0.164822	-0.215454	0.096005
	H1284	H	0.153447	0.034648	0.049699
	H1285	H	0.169334	0.034877	0.060152
	H1286	H	0.164778	-0.535182	0.095661
	H1287	H	0.147692	-0.534487	0.091496
	H1288	H	0.215918	-0.534994	0.112420
	H1289	H	0.231802	-0.534608	0.122734
	H1290	H	0.220253	0.034857	0.076519
	H1291	H	0.237492	0.034849	0.079704
	Al1292	Al	0.192521	-0.000137	0.086600
	Al1293	Al	0.192532	0.250162	0.086489
	Al1294	Al	0.129974	0.249945	0.024171
	Al1295	Al	0.130021	0.000116	0.024015
	O1296	O	0.201417	0.041020	0.101623
	O1297	O	0.193645	0.124818	0.076553
	O1298	O	0.191287	0.374969	0.096517
	O1299	O	0.246144	0.041005	0.133934
	O1300	O	0.180808	0.041251	0.097474
	O1301	O	0.131655	0.041173	0.090139
	O1302	O	0.180821	0.209254	0.097460
	O1303	O	0.183615	0.291023	0.071453
	O1304	O	0.138870	0.291313	0.039231
	O1305	O	0.201452	0.208950	0.101510
	O1306	O	0.204253	0.291365	0.075648
	O1307	O	0.253632	0.290949	0.081010
	O1308	O	0.131647	0.209372	0.090112
	O1309	O	0.183694	0.459028	0.071385
	O1310	O	0.138900	0.459139	0.039089
	O1311	O	0.253634	0.459180	0.080986
	O1312	O	0.204242	0.459269	0.075601
	O1313	O	0.246165	0.208980	0.133909
	O1314	O	0.121105	0.375139	0.091060
	O1315	O	0.264085	0.124906	0.078247
	C1316	C	0.228348	0.214681	0.120445
	C1317	C	0.232983	0.125063	0.123578
	C1318	C	0.228335	0.035342	0.120497
	C1319	C	0.219321	0.035419	0.114648
	C1320	C	0.214674	0.125193	0.111579
	C1321	C	0.219330	0.214829	0.114615
	C1322	C	0.205145	0.124931	0.104441
	C1323	C	0.242462	0.125023	0.130972
	C1324	C	0.176628	0.125258	0.097174
	C1325	C	0.166037	0.124938	0.096093
	C1326	C	0.161059	0.214885	0.094987
	C1327	C	0.151400	0.215037	0.092688
	C1328	C	0.146425	0.125224	0.091464
	C1329	C	0.151389	0.035224	0.092665
	C1330	C	0.161061	0.035022	0.094962
	C1331	C	0.135843	0.125297	0.090438
	C1332	C	0.179936	0.375111	0.068532
	C1333	C	0.170495	0.375425	0.061093
	C1334	C	0.165836	0.464861	0.058046
	C1335	C	0.156822	0.464812	0.052221
	C1336	C	0.152160	0.375178	0.049215
	C1337	C	0.156841	0.285755	0.052173
	C1338	C	0.165856	0.285813	0.058006
	C1339	C	0.142633	0.375251	0.041992
	C1340	C	0.208466	0.375288	0.075773
	C1341	C	0.219095	0.375285	0.076426
	C1342	C	0.224095	0.285402	0.077283
	C1343	C	0.233831	0.285269	0.079112
	C1344	C	0.238824	0.375145	0.080085
	C1345	C	0.233835	0.464930	0.079143
	C1346	C	0.224107	0.464987	0.077291
	C1347	C	0.249424	0.375010	0.080870
	H1348	H	0.237572	0.215365	0.079882
	H1349	H	0.220334	0.215533	0.076571
	H1350	H	0.231818	0.284849	0.122638
	H1351	H	0.215885	0.285202	0.112340
	H1352	H	0.195043	0.124900	0.065905
	H1353	H	0.189567	0.374318	0.107069
	H1354	H	0.122583	0.375299	0.080409
	H1355	H	0.262733	0.124799	0.088917
	H1356	H	0.169295	0.215500	0.060165
	H1357	H	0.153422	0.215684	0.049861
	H1358	H	0.147665	0.284976	0.091734
	H1359	H	0.164803	0.284995	0.095846
	H1360	H	0.153397	0.535015	0.049986
	H1361	H	0.169297	0.535051	0.060268
	H1362	H	0.164835	-0.034984	0.095778
	H1363	H	0.147671	-0.035083	0.091687
	H1364	H	0.215870	-0.034836	0.112411
	H1365	H	0.231777	-0.034759	0.122673
	H1366	H	0.220358	0.534872	0.076598
	H1367	H	0.237579	0.534886	0.079892
	Al1368	Al	0.182441	-0.499780	0.163370
	Al1369	Al	0.182413	-0.250012	0.163388
	Al1370	Al	0.119946	-0.249719	0.100947
	Al1371	Al	0.119915	-0.499765	0.101094
	O1372	O	0.191280	-0.458639	0.178558
	O1373	O	0.183633	-0.374913	0.153419
	O1374	O	0.181273	-0.124956	0.173364
	O1375	O	0.235931	-0.459495	0.210988
	O1376	O	0.170721	-0.459053	0.174283
	O1377	O	0.121380	-0.458738	0.169187
	O1378	O	0.170736	-0.290827	0.174268
	O1379	O	0.173467	-0.208873	0.148405
	O1380	O	0.128767	-0.209020	0.116159
	O1381	O	0.191282	-0.290861	0.178517
	O1382	O	0.194161	-0.209448	0.152569
	O1383	O	0.243331	-0.208753	0.159821
	O1384	O	0.121433	-0.290753	0.169242
	O1385	O	0.173468	-0.041011	0.148474
	O1386	O	0.128723	-0.041337	0.116187
	O1387	O	0.243310	-0.040735	0.159946
	O1388	O	0.194094	-0.041474	0.152457
	O1389	O	0.236081	-0.291463	0.210814
	O1390	O	0.110828	-0.125182	0.171793
	O1391	O	0.253854	-0.374656	0.158974
	C1392	C	0.218106	-0.285337	0.197831
	C1393	C	0.222760	-0.375031	0.200869
	C1394	C	0.218068	-0.464550	0.197940
	C1395	C	0.209074	-0.464334	0.192089
	C1396	C	0.204443	-0.374710	0.188904
	C1397	C	0.209122	-0.285220	0.191949
	C1398	C	0.194973	-0.374620	0.181544
	C1399	C	0.232286	-0.375224	0.208053
	C1400	C	0.166548	-0.374899	0.174150
	C1401	C	0.155936	-0.374730	0.173607
	C1402	C	0.150921	-0.285093	0.172673
	C1403	C	0.141207	-0.285468	0.170888
	C1404	C	0.136219	-0.375435	0.170023
	C1405	C	0.141221	-0.465089	0.171026
	C1406	C	0.150945	-0.464795	0.172800
	C1407	C	0.125605	-0.374999	0.169340
	C1408	C	0.169758	-0.124843	0.145578
	C1409	C	0.160255	-0.124770	0.138369
	C1410	C	0.155542	-0.035268	0.135480
	C1411	C	0.146541	-0.035322	0.129650
	C1412	C	0.141910	-0.124942	0.126482
	C1413	C	0.146619	-0.214349	0.129446
	C1414	C	0.155626	-0.214314	0.135261
	C1415	C	0.132466	-0.125128	0.119076
	C1416	C	0.198309	-0.125362	0.152821
	C1417	C	0.208898	-0.125083	0.153989
	C1418	C	0.213924	-0.214908	0.154971
	C1419	C	0.223590	-0.214657	0.157240
	C1420	C	0.228541	-0.124678	0.158542
	C1421	C	0.223547	-0.034808	0.157456
	C1422	C	0.213874	-0.035003	0.155184
	C1423	C	0.239124	-0.124730	0.159614
	H1424	H	0.227354	-0.284571	0.158027
	H1425	H	0.210212	-0.285126	0.153943
	H1426	H	0.221582	-0.215047	0.199977
	H1427	H	0.205655	-0.215158	0.189631
	H1428	H	0.185150	-0.374690	0.142808
	H1429	H	0.179833	-0.125434	0.183980
	H1430	H	0.112244	-0.124789	0.161116
	H1431	H	0.252213	-0.373935	0.169583
	H1432	H	0.159105	-0.284316	0.137474
	H1433	H	0.143208	-0.284650	0.127109
	H1434	H	0.137447	-0.215617	0.170119
	H1435	H	0.154680	-0.215294	0.173306
	H1436	H	0.143076	0.034788	0.127502
	H1437	H	0.158959	0.034515	0.137829
	H1438	H	0.154709	-0.534739	0.173567
	H1439	H	0.137446	-0.534849	0.170363
	H1440	H	0.205624	-0.534637	0.189917
	H1441	H	0.221541	-0.534332	0.200230
	H1442	H	0.210139	0.034746	0.154248
	H1443	H	0.227299	0.035182	0.158335
	Al1444	Al	0.182429	0.000315	0.163464
	Al1445	Al	0.182433	0.249844	0.163386
	Al1446	Al	0.119905	0.250200	0.101023
	Al1447	Al	0.119917	0.000213	0.101040
	O1448	O	0.191329	0.040765	0.178588
	O1449	O	0.183626	0.124803	0.153417
	O1450	O	0.181267	0.375266	0.173361
	O1451	O	0.235972	0.041216	0.210935
	O1452	O	0.170768	0.041795	0.174472
	O1453	O	0.121351	0.041278	0.169106
	O1454	O	0.170735	0.209775	0.174342
	O1455	O	0.173588	0.290943	0.148293
	O1456	O	0.128780	0.291202	0.116215
	O1457	O	0.191292	0.208831	0.178525
	O1458	O	0.194168	0.290477	0.152501
	O1459	O	0.243370	0.291088	0.159847
	O1460	O	0.121406	0.209625	0.169338
	O1461	O	0.173509	0.458995	0.148369
	O1462	O	0.128750	0.458906	0.116319
	O1463	O	0.243331	0.459040	0.159950
	O1464	O	0.194172	0.458687	0.152540
	O1465	O	0.236070	0.208984	0.210821
	O1466	O	0.110897	0.374709	0.171945
	O1467	O	0.253832	0.125302	0.158941
	C1468	C	0.218105	0.215050	0.197681
	C1469	C	0.222774	0.125578	0.200855
	C1470	C	0.218085	0.035829	0.197939
	C1471	C	0.209089	0.035663	0.192080
	C1472	C	0.204442	0.125146	0.188902
	C1473	C	0.209098	0.215051	0.191824
	C1474	C	0.194986	0.124905	0.181524
	C1475	C	0.232299	0.125177	0.208027
	C1476	C	0.166564	0.125605	0.174247
	C1477	C	0.155951	0.125418	0.173651
	C1478	C	0.150942	0.215361	0.172746
	C1479	C	0.141193	0.215373	0.170972
	C1480	C	0.136204	0.125315	0.170044
	C1481	C	0.141216	0.035447	0.170954
	C1482	C	0.150955	0.035415	0.172746
	C1483	C	0.125588	0.125270	0.169334
	C1484	C	0.169830	0.374828	0.145472
	C1485	C	0.160312	0.374410	0.138362
	C1486	C	0.155613	0.464199	0.135457
	C1487	C	0.146602	0.464169	0.129647
	C1488	C	0.141973	0.374786	0.126489
	C1489	C	0.146631	0.285004	0.129556
	C1490	C	0.155643	0.284900	0.135351
	C1491	C	0.132473	0.374936	0.119211
	C1492	C	0.198357	0.374655	0.152889
	C1493	C	0.208946	0.374935	0.153946
	C1494	C	0.213923	0.285071	0.155054
	C1495	C	0.223603	0.285183	0.157306
	C1496	C	0.228571	0.374993	0.158516
	C1497	C	0.223573	0.464844	0.157561
	C1498	C	0.213885	0.464790	0.155317
	C1499	C	0.239167	0.375081	0.159501
	H1500	H	0.227373	0.214973	0.158098
	H1501	H	0.210222	0.215076	0.154168
	H1502	H	0.221613	0.284985	0.199715
	H1503	H	0.205713	0.285116	0.189413
	H1504	H	0.185237	0.125218	0.142803
	H1505	H	0.179785	0.374914	0.184009
	H1506	H	0.112423	0.373993	0.161325
	H1507	H	0.252190	0.125658	0.169547
	H1508	H	0.159132	0.214510	0.137587
	H1509	H	0.143140	0.214807	0.127393
	H1510	H	0.137405	0.285192	0.170208
	H1511	H	0.154677	0.285565	0.173493
	H1512	H	0.143118	0.534040	0.127533
	H1513	H	0.159037	0.534254	0.137735
	H1514	H	0.154720	-0.034579	0.173532
	H1515	H	0.137483	-0.034791	0.170249
	H1516	H	0.205621	-0.034373	0.189809
	H1517	H	0.221521	-0.034579	0.200157
	H1518	H	0.210146	0.535008	0.154623
	H1519	H	0.227294	0.535149	0.158535
	Al1520	Al	0.172623	-0.499466	0.244280
	Al1521	Al	0.172604	-0.250136	0.244377
	Al1522	Al	0.110133	-0.249741	0.181677
	Al1523	Al	0.110138	-0.500683	0.181721
	O1524	O	0.182132	-0.459544	0.258249
	O1525	O	0.173333	-0.374785	0.234445
	O1526	O	0.172266	-0.124470	0.254253
	O1527	O	0.225777	-0.458794	0.292926
	O1528	O	0.162450	-0.458779	0.258899
	O1529	O	0.122626	-0.459422	0.312882
	O1530	O	0.162398	-0.290954	0.258858
	O1531	O	0.163182	-0.208817	0.230663
	O1532	O	0.119590	-0.208729	0.195751
	O1533	O	0.182049	-0.291364	0.258416
	O1534	O	0.183868	-0.209321	0.231815
	O1535	O	0.233207	-0.209106	0.236844
	O1536	O	0.122603	-0.291383	0.312809
	O1537	O	0.163229	-0.040839	0.230497
	O1538	O	0.119674	-0.040704	0.195643
	O1539	O	0.233217	-0.041061	0.236798
	O1540	O	0.183813	-0.041080	0.231506
	O1541	O	0.225707	-0.290658	0.293005
	O1542	O	0.113030	-0.124846	0.319504
	O1543	O	0.243773	-0.375171	0.235911
	C1544	C	0.208308	-0.285448	0.278947
	C1545	C	0.212793	-0.375130	0.282390
	C1546	C	0.208340	-0.464660	0.278858
	C1547	C	0.199562	-0.464767	0.272270
	C1548	C	0.195034	-0.375145	0.268987
	C1549	C	0.199544	-0.285567	0.272347
	C1550	C	0.185722	-0.375395	0.261344
	C1551	C	0.222084	-0.374881	0.290012
	C1552	C	0.158996	-0.374879	0.263237
	C1553	C	0.150371	-0.375291	0.274695
	C1554	C	0.146282	-0.286480	0.280159
	C1555	C	0.138391	-0.286661	0.290921
	C1556	C	0.134396	-0.375417	0.296511
	C1557	C	0.138459	-0.464197	0.291008
	C1558	C	0.146357	-0.464027	0.280248
	C1559	C	0.125936	-0.375324	0.308307
	C1560	C	0.159560	-0.124822	0.227586
	C1561	C	0.150257	-0.125028	0.219927
	C1562	C	0.145754	-0.035470	0.216579
	C1563	C	0.137025	-0.035501	0.209915
	C1564	C	0.132552	-0.124970	0.206437
	C1565	C	0.137036	-0.214638	0.209836
	C1566	C	0.145775	-0.214613	0.216510
	C1567	C	0.123249	-0.124878	0.198704
	C1568	C	0.188063	-0.125069	0.231776
	C1569	C	0.198654	-0.124914	0.232535
	C1570	C	0.203649	-0.214694	0.233433
	C1571	C	0.213374	-0.214943	0.235225
	C1572	C	0.218392	-0.125122	0.236137
	C1573	C	0.213398	-0.035295	0.235189
	C1574	C	0.203678	-0.035207	0.233392
	C1575	C	0.229019	-0.125091	0.236691
	H1576	H	0.217126	-0.284946	0.235968
	H1577	H	0.199890	-0.284563	0.232725
	H1578	H	0.211698	-0.215855	0.281467
	H1579	H	0.196179	-0.215730	0.269766
	H1580	H	0.174662	-0.374357	0.223783
	H1581	H	0.171958	-0.124106	0.265046
	H1582	H	0.112684	-0.124818	0.308800
	H1583	H	0.242332	-0.375118	0.246578
	H1584	H	0.149166	-0.283937	0.219115
	H1585	H	0.133664	-0.284280	0.207260
	H1586	H	0.135339	-0.217904	0.295081
	H1587	H	0.149317	-0.217629	0.275907
	H1588	H	0.133640	0.034296	0.207394
	H1589	H	0.149098	0.034154	0.219208
	H1590	H	0.149440	-0.532854	0.276091
	H1591	H	0.135442	-0.532990	0.295261
	H1592	H	0.196226	-0.534633	0.269655
	H1593	H	0.211739	-0.534261	0.281337
	H1594	H	0.199946	0.034790	0.232666
	H1595	H	0.217174	0.034377	0.235850
	Al1596	Al	0.172661	0.000670	0.244186
	Al1597	Al	0.172649	0.249608	0.244220
	Al1598	Al	0.110124	0.250110	0.181872
	Al1599	Al	0.110144	-0.000822	0.181639
	O1600	O	0.182153	0.040716	0.258180
	O1601	O	0.173339	0.125107	0.234277
	O1602	O	0.172279	0.375005	0.254192
	O1603	O	0.225762	0.040787	0.293032
	O1604	O	0.162426	0.041443	0.258757
	O1605	O	0.122653	0.041214	0.312883
	O1606	O	0.162405	0.209346	0.258735
	O1607	O	0.163283	0.291561	0.230388
	O1608	O	0.119603	0.291184	0.195849
	O1609	O	0.182104	0.208587	0.258290
	O1610	O	0.183894	0.290963	0.231677
	O1611	O	0.233246	0.290712	0.236847
	O1612	O	0.122696	0.209384	0.312872
	O1613	O	0.163193	0.459349	0.230584
	O1614	O	0.119597	0.458995	0.195865
	O1615	O	0.233259	0.458941	0.236869
	O1616	O	0.183872	0.459350	0.231689
	O1617	O	0.225723	0.208782	0.293101
	O1618	O	0.112952	0.374990	0.319485
	O1619	O	0.243792	0.125202	0.235898
	C1620	C	0.208251	0.214229	0.279122
	C1621	C	0.212788	0.124922	0.282492
	C1622	C	0.208288	0.035348	0.279162
	C1623	C	0.199538	0.035305	0.272513
	C1624	C	0.195018	0.124548	0.269051
	C1625	C	0.199502	0.214209	0.272469
	C1626	C	0.185764	0.124773	0.261280
	C1627	C	0.222067	0.124906	0.290105
	C1628	C	0.159001	0.125237	0.263150
	C1629	C	0.150420	0.124849	0.274706
	C1630	C	0.146354	0.213652	0.280200
	C1631	C	0.138470	0.213718	0.291009
	C1632	C	0.134448	0.124684	0.296529
	C1633	C	0.138475	0.035763	0.290968
	C1634	C	0.146368	0.035895	0.280163
	C1635	C	0.126007	0.125238	0.308351
	C1636	C	0.159611	0.375368	0.227509
	C1637	C	0.150326	0.375164	0.219847
	C1638	C	0.145792	0.464451	0.216540
	C1639	C	0.137032	0.464241	0.209935
	C1640	C	0.132553	0.374834	0.206462
	C1641	C	0.137096	0.285624	0.209785
	C1642	C	0.145853	0.285774	0.216398
	C1643	C	0.123252	0.375090	0.198799
	C1644	C	0.188082	0.375275	0.231781
	C1645	C	0.198692	0.375342	0.232455
	C1646	C	0.203686	0.285502	0.233384
	C1647	C	0.213408	0.285408	0.235197
	C1648	C	0.218420	0.375127	0.236120
	C1649	C	0.213411	0.465087	0.235337
	C1650	C	0.203685	0.465161	0.233520
	C1651	C	0.229055	0.374951	0.236672
	H1652	H	0.217183	0.215622	0.235941
	H1653	H	0.199930	0.215415	0.232721
	H1654	H	0.211593	0.283762	0.281706
	H1655	H	0.196122	0.283837	0.269925
	H1656	H	0.174738	0.125711	0.223673
	H1657	H	0.172032	0.374430	0.264952
	H1658	H	0.112732	0.374822	0.308750
	H1659	H	0.242297	0.125538	0.246539
	H1660	H	0.149236	0.216322	0.218921
	H1661	H	0.133760	0.215932	0.207171
	H1662	H	0.135455	0.282997	0.295221
	H1663	H	0.149370	0.282756	0.275965
	H1664	H	0.133627	0.533984	0.207431
	H1665	H	0.149166	0.533860	0.219135
	H1666	H	0.149401	-0.033335	0.275929
	H1667	H	0.135456	-0.033261	0.295169
	H1668	H	0.196167	-0.034498	0.270016
	H1669	H	0.211659	-0.034261	0.281797
	H1670	H	0.199883	0.534887	0.232981
	H1671	H	0.217177	0.535102	0.236156
	Al1672	Al	0.175884	-0.499780	0.391557
	Al1673	Al	0.175923	-0.249977	0.391584
	Al1674	Al	0.113346	-0.249925	0.329143
	Al1675	Al	0.113336	-0.499998	0.329145
	O1676	O	0.186131	-0.459065	0.403688
	O1677	O	0.175589	-0.374873	0.381860
	O1678	O	0.176281	-0.124890	0.401260
	O1679	O	0.228220	-0.459511	0.441977
	O1680	O	0.166792	-0.458777	0.408121
	O1681	O	0.129993	-0.458835	0.467694
	O1682	O	0.166836	-0.290963	0.408227
	O1683	O	0.165718	-0.209125	0.379517
	O1684	O	0.123610	-0.209143	0.341207
	O1685	O	0.186167	-0.290934	0.403620
	O1686	O	0.185166	-0.209038	0.375134
	O1687	O	0.225044	-0.208495	0.321338
	O1688	O	0.129961	-0.290809	0.467668
	O1689	O	0.165729	-0.040897	0.379397
	O1690	O	0.123613	-0.041066	0.341271
	O1691	O	0.224893	-0.040693	0.321209
	O1692	O	0.185181	-0.041108	0.375139
	O1693	O	0.228223	-0.291220	0.441933
	O1694	O	0.120412	-0.124905	0.474747
	O1695	O	0.234757	-0.374763	0.316657
	C1696	C	0.211368	-0.285979	0.426695
	C1697	C	0.215673	-0.375439	0.430502
	C1698	C	0.211424	-0.464742	0.426497
	C1699	C	0.203035	-0.464561	0.418843
	C1700	C	0.198725	-0.375208	0.415066
	C1701	C	0.202990	-0.286052	0.419032
	C1702	C	0.189688	-0.375142	0.406782
	C1703	C	0.224687	-0.375322	0.438827
	C1704	C	0.163659	-0.374796	0.413023
	C1705	C	0.155748	-0.374931	0.425817
	C1706	C	0.152009	-0.286011	0.431907
	C1707	C	0.144711	-0.285983	0.443785
	C1708	C	0.140927	-0.374849	0.449815
	C1709	C	0.144678	-0.463772	0.443718
	C1710	C	0.151969	-0.463783	0.431836
	C1711	C	0.133110	-0.374963	0.462717
	C1712	C	0.162192	-0.125133	0.376298
	C1713	C	0.153195	-0.125140	0.367914
	C1714	C	0.148851	-0.036020	0.364183
	C1715	C	0.140434	-0.036113	0.356595
	C1716	C	0.136189	-0.125307	0.352645
	C1717	C	0.140524	-0.214334	0.356368
	C1718	C	0.148942	-0.214138	0.363963
	C1719	C	0.127170	-0.125166	0.344312
	C1720	C	0.188495	-0.125137	0.370576
	C1721	C	0.196955	-0.125029	0.358782
	C1722	C	0.200971	-0.213812	0.353201
	C1723	C	0.208878	-0.213854	0.342444
	C1724	C	0.212956	-0.124875	0.337049
	C1725	C	0.208922	-0.036106	0.342566
	C1726	C	0.201027	-0.036104	0.353327
	C1727	C	0.221551	-0.124820	0.325622
	H1728	H	0.211894	-0.282767	0.338203
	H1729	H	0.197900	-0.282641	0.357341
	H1730	H	0.214602	-0.216913	0.429789
	H1731	H	0.199727	-0.216993	0.416043
	H1732	H	0.175416	-0.374793	0.371214
	H1733	H	0.176622	-0.124812	0.411948
	H1734	H	0.119804	-0.125105	0.464079
	H1735	H	0.234378	-0.375135	0.327495
	H1736	H	0.152225	-0.282894	0.366901
	H1737	H	0.137316	-0.283211	0.353274
	H1738	H	0.141926	-0.217067	0.448425
	H1739	H	0.154839	-0.217104	0.427285
	H1740	H	0.137154	0.032692	0.353652
	H1741	H	0.152064	0.032931	0.367248
	H1742	H	0.154772	-0.532782	0.427146
	H1743	H	0.141848	-0.532723	0.448311
	H1744	H	0.199806	-0.533193	0.415742
	H1745	H	0.214717	-0.533648	0.429466
	H1746	H	0.198017	0.032814	0.357579
	H1747	H	0.212010	0.032645	0.338439
	Al1748	Al	0.175923	0.000044	0.391505
	Al1749	Al	0.175895	0.250066	0.391582
	Al1750	Al	0.113371	0.250162	0.329209
	Al1751	Al	0.113410	0.000068	0.329180
	O1752	O	0.186195	0.040864	0.403527
	O1753	O	0.175485	0.125167	0.381867
	O1754	O	0.176306	0.375089	0.401281
	O1755	O	0.228190	0.041365	0.441917
	O1756	O	0.166839	0.041112	0.408141
	O1757	O	0.129962	0.041441	0.467691
	O1758	O	0.166762	0.208985	0.408130
	O1759	O	0.165738	0.290962	0.379357
	O1760	O	0.123627	0.291143	0.341242
	O1761	O	0.186088	0.209018	0.403686
	O1762	O	0.185167	0.290955	0.375214
	O1763	O	0.224969	0.291270	0.321375
	O1764	O	0.130044	0.209071	0.467708
	O1765	O	0.165717	0.459076	0.379438
	O1766	O	0.123619	0.459273	0.341173
	O1767	O	0.224956	0.458856	0.321342
	O1768	O	0.185187	0.459019	0.375226
	O1769	O	0.228179	0.209439	0.441938
	O1770	O	0.120531	0.375103	0.474762
	O1771	O	0.234881	0.125130	0.316786
	C1772	C	0.211340	0.214665	0.426669
	C1773	C	0.215653	0.125439	0.430433
	C1774	C	0.211420	0.036221	0.426450
	C1775	C	0.203035	0.036128	0.418799
	C1776	C	0.198714	0.125362	0.415030
	C1777	C	0.202947	0.214605	0.419011
	C1778	C	0.189682	0.125060	0.406737
	C1779	C	0.224656	0.125425	0.438780
	C1780	C	0.163633	0.124999	0.413044
	C1781	C	0.155776	0.124716	0.425854
	C1782	C	0.152048	0.213522	0.431935
	C1783	C	0.144757	0.213670	0.443832
	C1784	C	0.140983	0.125032	0.449905
	C1785	C	0.144700	0.036154	0.443786
	C1786	C	0.151989	0.035938	0.431874
	C1787	C	0.133132	0.125053	0.462790
	C1788	C	0.162155	0.375005	0.376304
	C1789	C	0.153150	0.374839	0.367999
	C1790	C	0.148854	0.464205	0.364174
	C1791	C	0.140462	0.464574	0.356535
	C1792	C	0.136169	0.375368	0.352649
	C1793	C	0.140482	0.285989	0.356406
	C1794	C	0.148873	0.285702	0.364041
	C1795	C	0.127176	0.375247	0.344288
	C1796	C	0.188485	0.374815	0.370651
	C1797	C	0.196879	0.374763	0.358801
	C1798	C	0.200887	0.285766	0.353175
	C1799	C	0.208807	0.285943	0.342439
	C1800	C	0.212915	0.375142	0.337077
	C1801	C	0.208853	0.464114	0.342610
	C1802	C	0.200942	0.463788	0.353352
	C1803	C	0.221553	0.375083	0.325726
	H1804	H	0.211849	0.217147	0.338217
	H1805	H	0.197837	0.216746	0.357334
	H1806	H	0.214579	0.283323	0.429797
	H1807	H	0.199681	0.283511	0.416092
	H1808	H	0.175129	0.125176	0.371182
	H1809	H	0.176894	0.374779	0.411884
	H1810	H	0.119943	0.374793	0.464115
	H1811	H	0.234759	0.124494	0.327644
	H1812	H	0.152143	0.216598	0.366947
	H1813	H	0.137261	0.217064	0.353216
	H1814	H	0.141955	0.282723	0.448469
	H1815	H	0.154853	0.282613	0.427282
	H1816	H	0.137219	0.533495	0.353506
	H1817	H	0.152119	0.533121	0.367246
	H1818	H	0.154762	-0.032939	0.427222
	H1819	H	0.141863	-0.032720	0.448402
	H1820	H	0.199816	-0.032822	0.415772
	H1821	H	0.214673	-0.032749	0.429382
	H1822	H	0.197934	0.532618	0.357670
	H1823	H	0.211950	0.533248	0.338531
	Al1824	Al	0.183485	-0.499800	0.546944
	Al1825	Al	0.183470	-0.249852	0.546898
	Al1826	Al	0.120959	-0.250158	0.484421
	Al1827	Al	0.121023	-0.499980	0.484443
	O1828	O	0.193787	-0.458802	0.558829
	O1829	O	0.183044	-0.374956	0.537266
	O1830	O	0.183920	-0.124901	0.556630
	O1831	O	0.235703	-0.458789	0.597467
	O1832	O	0.174557	-0.459100	0.563735
	O1833	O	0.138016	-0.459355	0.623801
	O1834	O	0.174522	-0.291072	0.563766
	O1835	O	0.173156	-0.208959	0.535009
	O1836	O	0.131252	-0.208935	0.496286
	O1837	O	0.193762	-0.290649	0.558811
	O1838	O	0.192422	-0.208996	0.530101
	O1839	O	0.229277	-0.208975	0.470653
	O1840	O	0.138092	-0.291523	0.623800
	O1841	O	0.173190	-0.040991	0.534994
	O1842	O	0.131275	-0.040881	0.496369
	O1843	O	0.229213	-0.041041	0.470540
	O1844	O	0.192435	-0.041174	0.530158
	O1845	O	0.235716	-0.290739	0.597490
	O1846	O	0.128631	-0.125286	0.630934
	O1847	O	0.238876	-0.375095	0.463706
	C1848	C	0.218890	-0.285518	0.582080
	C1849	C	0.223178	-0.374651	0.585931
	C1850	C	0.218905	-0.463478	0.581990
	C1851	C	0.210552	-0.463642	0.574239
	C1852	C	0.206302	-0.374659	0.570307
	C1853	C	0.210528	-0.285634	0.574361
	C1854	C	0.197317	-0.374790	0.561973
	C1855	C	0.232165	-0.374621	0.594310
	C1856	C	0.171416	-0.375241	0.568693
	C1857	C	0.163622	-0.375600	0.581643
	C1858	C	0.159944	-0.286572	0.587837
	C1859	C	0.152701	-0.286467	0.599782
	C1860	C	0.148941	-0.375651	0.605846
	C1861	C	0.152627	-0.464654	0.599657
	C1862	C	0.159864	-0.464682	0.587682
	C1863	C	0.141143	-0.375485	0.618795
	C1864	C	0.169630	-0.125005	0.531855
	C1865	C	0.160653	-0.124980	0.523471
	C1866	C	0.156357	-0.035807	0.519638
	C1867	C	0.148010	-0.035882	0.511870
	C1868	C	0.143792	-0.124957	0.507874
	C1869	C	0.148100	-0.213983	0.511677
	C1870	C	0.156444	-0.214116	0.519435
	C1871	C	0.134815	-0.124904	0.499463
	C1872	C	0.195553	-0.124931	0.525209
	C1873	C	0.203455	-0.124976	0.512404
	C1874	C	0.207215	-0.213730	0.506317
	C1875	C	0.214510	-0.213783	0.494439
	C1876	C	0.218252	-0.124829	0.488365
	C1877	C	0.214470	-0.035920	0.494405
	C1878	C	0.207173	-0.036159	0.506264
	C1879	C	0.226143	-0.125075	0.475540
	H1880	H	0.217367	-0.282991	0.489874
	H1881	H	0.204377	-0.282582	0.510949
	H1882	H	0.222111	-0.216470	0.585247
	H1883	H	0.207260	-0.216677	0.571327
	H1884	H	0.182696	-0.375339	0.526526
	H1885	H	0.184399	-0.124852	0.567277
	H1886	H	0.128112	-0.125831	0.620227
	H1887	H	0.239373	-0.375231	0.474357
	H1888	H	0.159730	-0.283044	0.522336
	H1889	H	0.144903	-0.283087	0.508486
	H1890	H	0.149939	-0.217333	0.604520
	H1891	H	0.162761	-0.217551	0.583209
	H1892	H	0.144757	0.033259	0.508864
	H1893	H	0.159588	0.033264	0.522732
	H1894	H	0.162594	-0.533740	0.582907
	H1895	H	0.149791	-0.533653	0.604237
	H1896	H	0.207329	-0.532527	0.571181
	H1897	H	0.222101	-0.532210	0.585106
	H1898	H	0.204330	0.033125	0.510848
	H1899	H	0.217286	0.033207	0.489800
	Al1900	Al	0.183520	0.000215	0.546938
	Al1901	Al	0.183536	0.250126	0.546906
	Al1902	Al	0.121024	0.249903	0.484458
	Al1903	Al	0.120985	0.000004	0.484461
	O1904	O	0.193829	0.040708	0.558740
	O1905	O	0.183017	0.125116	0.537277
	O1906	O	0.184027	0.374944	0.556587
	O1907	O	0.235709	0.040453	0.597504
	O1908	O	0.174572	0.041219	0.563758
	O1909	O	0.138035	0.041203	0.623711
	O1910	O	0.174536	0.209268	0.563719
	O1911	O	0.173249	0.290924	0.534946
	O1912	O	0.131310	0.290803	0.496331
	O1913	O	0.193815	0.208738	0.558800
	O1914	O	0.192514	0.291080	0.530117
	O1915	O	0.229269	0.290886	0.470576
	O1916	O	0.138078	0.209111	0.623790
	O1917	O	0.173156	0.459018	0.535096
	O1918	O	0.131322	0.459269	0.496328
	O1919	O	0.229290	0.459047	0.470569
	O1920	O	0.192458	0.459077	0.530044
	O1921	O	0.235706	0.208733	0.597476
	O1922	O	0.128543	0.374882	0.630950
	O1923	O	0.238805	0.124861	0.463760
	C1924	C	0.218925	0.213812	0.582116
	C1925	C	0.223203	0.124571	0.585978
	C1926	C	0.218936	0.035327	0.582052
	C1927	C	0.210587	0.035259	0.574299
	C1928	C	0.206312	0.124479	0.570393
	C1929	C	0.210564	0.213732	0.574360
	C1930	C	0.197340	0.124770	0.561970
	C1931	C	0.232167	0.124498	0.594373
	C1932	C	0.171438	0.125355	0.568703
	C1933	C	0.163663	0.124990	0.581655
	C1934	C	0.159965	0.213943	0.587797
	C1935	C	0.152736	0.214212	0.599795
	C1936	C	0.148982	0.125220	0.605865
	C1937	C	0.152691	0.036270	0.599728
	C1938	C	0.159910	0.036135	0.587722
	C1939	C	0.141166	0.125256	0.618805
	C1940	C	0.169656	0.375073	0.531886
	C1941	C	0.160658	0.374882	0.523524
	C1942	C	0.156376	0.464263	0.519698
	C1943	C	0.148018	0.464077	0.511976
	C1944	C	0.143774	0.374908	0.507975
	C1945	C	0.148075	0.285663	0.511762
	C1946	C	0.156431	0.285754	0.519498
	C1947	C	0.134844	0.375025	0.499495
	C1948	C	0.195584	0.374954	0.525131
	C1949	C	0.203452	0.375207	0.512256
	C1950	C	0.207246	0.286035	0.506233
	C1951	C	0.214541	0.286065	0.494370
	C1952	C	0.218226	0.375144	0.488221
	C1953	C	0.214449	0.464303	0.494268
	C1954	C	0.207144	0.464317	0.506109
	C1955	C	0.226141	0.375065	0.475466
	H1956	H	0.217412	0.217115	0.489797
	H1957	H	0.204494	0.216976	0.510931
	H1958	H	0.222151	0.282725	0.585216
	H1959	H	0.207286	0.282717	0.571392
	H1960	H	0.182486	0.124871	0.526596
	H1961	H	0.184521	0.375089	0.567285
	H1962	H	0.127997	0.374625	0.620280
	H1963	H	0.239271	0.125252	0.474421
	H1964	H	0.159731	0.216881	0.522431
	H1965	H	0.144857	0.216486	0.508604
	H1966	H	0.149957	0.283310	0.604497
	H1967	H	0.162765	0.282991	0.583180
	H1968	H	0.144761	0.533030	0.508987
	H1969	H	0.159598	0.533104	0.522777
	H1970	H	0.162665	-0.033029	0.583017
	H1971	H	0.149860	-0.032993	0.604309
	H1972	H	0.207348	-0.033659	0.571251
	H1973	H	0.222162	-0.033644	0.585098
	H1974	H	0.204279	0.533189	0.510726
	H1975	H	0.217253	0.533480	0.489593
	Al1976	Al	0.191551	-0.500173	0.703085
	Al1977	Al	0.191619	-0.250205	0.703091
	Al1978	Al	0.129109	-0.250276	0.640674
	Al1979	Al	0.129071	-0.500165	0.640607
	O1980	O	0.201844	-0.459138	0.714972
	O1981	O	0.191118	-0.375103	0.693384
	O1982	O	0.192148	-0.124985	0.712756
	O1983	O	0.243776	-0.459513	0.753631
	O1984	O	0.182599	-0.458544	0.719857
	O1985	O	0.145794	-0.459053	0.779418
	O1986	O	0.182636	-0.290538	0.719978
	O1987	O	0.181307	-0.209127	0.691221
	O1988	O	0.139408	-0.209127	0.652540
	O1989	O	0.201924	-0.291031	0.714922
	O1990	O	0.200577	-0.208900	0.686212
	O1991	O	0.237035	-0.209142	0.626202
	O1992	O	0.145785	-0.291020	0.779316
	O1993	O	0.181324	-0.040966	0.691220
	O1994	O	0.139405	-0.040946	0.652557
	O1995	O	0.237051	-0.041296	0.626191
	O1996	O	0.200564	-0.041064	0.686310
	O1997	O	0.243726	-0.291385	0.753755
	O1998	O	0.136261	-0.124957	0.786156
	O1999	O	0.246474	-0.374757	0.619105
	C2000	C	0.226988	-0.286456	0.738182
	C2001	C	0.231246	-0.375539	0.742141
	C2002	C	0.226966	-0.464771	0.738217
	C2003	C	0.218630	-0.464677	0.730457
	C2004	C	0.214368	-0.375417	0.726520
	C2005	C	0.218640	-0.286241	0.730433
	C2006	C	0.205416	-0.375188	0.718132
	C2007	C	0.240213	-0.375421	0.750551
	C2008	C	0.179495	-0.374550	0.724832
	C2009	C	0.171586	-0.374432	0.737641
	C2010	C	0.167812	-0.285590	0.743665
	C2011	C	0.160499	-0.285891	0.755571
	C2012	C	0.156800	-0.374979	0.761651
	C2013	C	0.160564	-0.463777	0.755588
	C2014	C	0.167878	-0.463567	0.743711
	C2015	C	0.148902	-0.374847	0.774414
	C2016	C	0.177778	-0.125105	0.688034
	C2017	C	0.168789	-0.125009	0.679683
	C2018	C	0.164537	-0.035857	0.675721
	C2019	C	0.156186	-0.036012	0.667970
	C2020	C	0.151916	-0.125279	0.664091
	C2021	C	0.156142	-0.214435	0.668099
	C2022	C	0.164496	-0.214204	0.675830
	C2023	C	0.142934	-0.125007	0.655687
	C2024	C	0.203649	-0.124761	0.681279
	C2025	C	0.211454	-0.124628	0.668314
	C2026	C	0.215221	-0.213466	0.662267
	C2027	C	0.222455	-0.213442	0.650306
	C2028	C	0.226137	-0.124506	0.644108
	C2029	C	0.222409	-0.035501	0.650232
	C2030	C	0.215172	-0.035556	0.662189
	C2031	C	0.233937	-0.125170	0.631182
	H2032	H	0.225269	-0.282487	0.645689
	H2033	H	0.212464	-0.282432	0.666972
	H2034	H	0.230226	-0.217533	0.741270
	H2035	H	0.215402	-0.217136	0.727388
	H2036	H	0.190795	-0.375364	0.682597
	H2037	H	0.192611	-0.124863	0.723478
	H2038	H	0.135870	-0.125724	0.775498
	H2039	H	0.247061	-0.375303	0.629761
	H2040	H	0.167721	-0.283271	0.678913
	H2041	H	0.152904	-0.283594	0.665074
	H2042	H	0.157666	-0.217202	0.760140
	H2043	H	0.170577	-0.216641	0.739005
	H2044	H	0.152958	0.033003	0.664825
	H2045	H	0.167783	0.032849	0.678725
	H2046	H	0.170687	-0.532711	0.739084
	H2047	H	0.157765	-0.532796	0.760180
	H2048	H	0.215386	-0.533490	0.727415
	H2049	H	0.230200	-0.533880	0.741270
	H2050	H	0.212370	0.033583	0.666891
	H2051	H	0.225178	0.033337	0.645561
	Al2052	Al	0.191596	0.000064	0.703121
	Al2053	Al	0.191585	0.249830	0.703160
	Al2054	Al	0.129085	0.249901	0.640596
	Al2055	Al	0.129127	-0.000182	0.640567
	O2056	O	0.201878	0.041036	0.715039
	O2057	O	0.191115	0.124833	0.693495
	O2058	O	0.192062	0.374883	0.712809
	O2059	O	0.243746	0.041076	0.753643
	O2060	O	0.182600	0.040801	0.719883
	O2061	O	0.145773	0.041177	0.779405
	O2062	O	0.182599	0.209042	0.719907
	O2063	O	0.181269	0.290958	0.691237
	O2064	O	0.139332	0.291111	0.652617
	O2065	O	0.201861	0.209378	0.715114
	O2066	O	0.200554	0.291230	0.686314
	O2067	O	0.237083	0.290986	0.626275
	O2068	O	0.145726	0.209093	0.779347
	O2069	O	0.181265	0.459177	0.691203
	O2070	O	0.139390	0.458918	0.652480
	O2071	O	0.237057	0.459011	0.626267
	O2072	O	0.200533	0.459087	0.686239
	O2073	O	0.243744	0.209368	0.753764
	O2074	O	0.136308	0.375162	0.786190
	O2075	O	0.246502	0.124992	0.619048
	C2076	C	0.226975	0.214786	0.738220
	C2077	C	0.231250	0.125448	0.742128
	C2078	C	0.226998	0.036233	0.738247
	C2079	C	0.218652	0.036299	0.730512
	C2080	C	0.214386	0.125504	0.726581
	C2081	C	0.218627	0.214749	0.730494
	C2082	C	0.205398	0.125293	0.718236
	C2083	C	0.240216	0.125553	0.750578
	C2084	C	0.179472	0.124833	0.724791
	C2085	C	0.171570	0.124948	0.737609
	C2086	C	0.167830	0.213839	0.743719
	C2087	C	0.160538	0.213937	0.755580
	C2088	C	0.156780	0.125043	0.761667
	C2089	C	0.160550	0.036031	0.755611
	C2090	C	0.167843	0.035918	0.743727
	C2091	C	0.148859	0.125235	0.774454
	C2092	C	0.177751	0.375070	0.688047
	C2093	C	0.168763	0.375131	0.679694
	C2094	C	0.164475	0.464158	0.675803
	C2095	C	0.156124	0.464355	0.668069
	C2096	C	0.151884	0.375068	0.664099
	C2097	C	0.156154	0.286027	0.668061
	C2098	C	0.164513	0.285911	0.675806
	C2099	C	0.142898	0.374978	0.655715
	C2100	C	0.203649	0.375071	0.681302
	C2101	C	0.211459	0.374901	0.668347
	C2102	C	0.215179	0.285985	0.662243
	C2103	C	0.222426	0.285828	0.650271
	C2104	C	0.226146	0.374791	0.644142
	C2105	C	0.222402	0.463793	0.650196
	C2106	C	0.215165	0.463899	0.662171
	C2107	C	0.233979	0.374791	0.631236
	H2108	H	0.225219	0.216554	0.645657
	H2109	H	0.212401	0.217037	0.666904
	H2110	H	0.230187	0.283643	0.741344
	H2111	H	0.215366	0.283508	0.727510
	H2112	H	0.190717	0.124780	0.682857
	H2113	H	0.192565	0.374815	0.723453
	H2114	H	0.135938	0.374542	0.775516
	H2115	H	0.246920	0.124790	0.629701
	H2116	H	0.167753	0.217423	0.678883
	H2117	H	0.152914	0.217156	0.665000
	H2118	H	0.157745	0.282874	0.760243
	H2119	H	0.170657	0.282640	0.739135
	H2120	H	0.152880	0.533181	0.665063
	H2121	H	0.167712	0.533057	0.678867
	H2122	H	0.170660	-0.033103	0.739086
	H2123	H	0.157736	-0.033145	0.760242
	H2124	H	0.215404	-0.032621	0.727510
	H2125	H	0.230215	-0.032469	0.741366
	H2126	H	0.212380	0.533005	0.666822
	H2127	H	0.225207	0.533088	0.645543
	Al2128	Al	0.199171	-0.500165	0.858415
	Al2129	Al	0.199150	-0.250165	0.858512
	Al2130	Al	0.136671	-0.249886	0.795952
	Al2131	Al	0.136650	-0.500260	0.795940
	O2132	O	0.209357	-0.459055	0.870562
	O2133	O	0.198791	-0.375143	0.848705
	O2134	O	0.199508	-0.124945	0.868236
	O2135	O	0.251310	-0.459570	0.909119
	O2136	O	0.189863	-0.459065	0.874768
	O2137	O	0.150081	-0.459218	0.928707
	O2138	O	0.189879	-0.291027	0.874801
	O2139	O	0.188931	-0.209385	0.846380
	O2140	O	0.146882	-0.209233	0.807985
	O2141	O	0.209319	-0.290930	0.870632
	O2142	O	0.208273	-0.209089	0.841965
	O2143	O	0.245037	-0.209200	0.782416
	O2144	O	0.150069	-0.291251	0.928637
	O2145	O	0.188936	-0.041279	0.846448
	O2146	O	0.146880	-0.041178	0.808014
	O2147	O	0.245020	-0.041152	0.782314
	O2148	O	0.208239	-0.041250	0.841978
	O2149	O	0.251385	-0.291409	0.908831
	O2150	O	0.140160	-0.124899	0.933256
	O2151	O	0.254588	-0.375202	0.775245
	C2152	C	0.234531	-0.286312	0.893693
	C2153	C	0.238762	-0.375652	0.897624
	C2154	C	0.234451	-0.464709	0.893766
	C2155	C	0.226084	-0.464603	0.886061
	C2156	C	0.221846	-0.375107	0.882162
	C2157	C	0.226150	-0.286039	0.886008
	C2158	C	0.212875	-0.375050	0.873745
	C2159	C	0.247780	-0.375633	0.905900
	C2160	C	0.186554	-0.375066	0.879317
	C2161	C	0.178119	-0.375231	0.891126
	C2162	C	0.174100	-0.286484	0.896732
	C2163	C	0.166204	-0.286616	0.907500
	C2164	C	0.162110	-0.375374	0.912868
	C2165	C	0.166165	-0.464237	0.907340
	C2166	C	0.174064	-0.464127	0.896569
	C2167	C	0.153495	-0.375341	0.924265
	C2168	C	0.185370	-0.125327	0.843285
	C2169	C	0.176355	-0.125143	0.835022
	C2170	C	0.172090	-0.035955	0.831101
	C2171	C	0.163686	-0.035750	0.823444
	C2172	C	0.159393	-0.125094	0.819586
	C2173	C	0.163661	-0.214208	0.823504
	C2174	C	0.172045	-0.214267	0.831148
	C2175	C	0.150425	-0.125110	0.811162
	C2176	C	0.211399	-0.125313	0.837092
	C2177	C	0.219268	-0.125084	0.824249
	C2178	C	0.223055	-0.214182	0.818205
	C2179	C	0.230341	-0.214219	0.806282
	C2180	C	0.234057	-0.125102	0.800191
	C2181	C	0.230273	-0.036027	0.806210
	C2182	C	0.222988	-0.035995	0.818116
	C2183	C	0.241909	-0.124983	0.787326
	H2184	H	0.233194	-0.283541	0.801739
	H2185	H	0.220264	-0.283638	0.822894
	H2186	H	0.237817	-0.217379	0.896626
	H2187	H	0.222939	-0.217021	0.882932
	H2188	H	0.198336	-0.374482	0.838108
	H2189	H	0.199888	-0.124806	0.878956
	H2190	H	0.140245	-0.124093	0.922449
	H2191	H	0.255163	-0.375157	0.785929
	H2192	H	0.175262	-0.283382	0.834149
	H2193	H	0.160433	-0.283109	0.820462
	H2194	H	0.163166	-0.217809	0.911765
	H2195	H	0.177144	-0.217240	0.892571
	H2196	H	0.160454	0.033010	0.820311
	H2197	H	0.175379	0.033061	0.834097
	H2198	H	0.177116	-0.533025	0.892304
	H2199	H	0.163112	-0.533040	0.911461
	H2200	H	0.222819	-0.533721	0.883062
	H2201	H	0.237672	-0.533842	0.896808
	H2202	H	0.220157	0.033163	0.822704
	H2203	H	0.233072	0.033135	0.801572
	Al2204	Al	0.199114	-0.000023	0.858536
	Al2205	Al	0.199132	0.249745	0.858419
	Al2206	Al	0.136625	0.250004	0.795932
	Al2207	Al	0.136652	-0.000245	0.795945
	O2208	O	0.209303	0.041044	0.870673
	O2209	O	0.198750	0.124664	0.848767
	O2210	O	0.199531	0.374853	0.868181
	O2211	O	0.251332	0.040644	0.908949
	O2212	O	0.189796	0.041193	0.874767
	O2213	O	0.149976	0.041726	0.928738
	O2214	O	0.189797	0.209220	0.874809
	O2215	O	0.188954	0.291067	0.846297
	O2216	O	0.146854	0.290823	0.808078
	O2217	O	0.209281	0.209054	0.870596
	O2218	O	0.208266	0.290314	0.841932
	O2219	O	0.245086	0.290661	0.782392
	O2220	O	0.150104	0.209449	0.928828
	O2221	O	0.188946	0.458942	0.846284
	O2222	O	0.146750	0.458770	0.808238
	O2223	O	0.245042	0.458502	0.782368
	O2224	O	0.208254	0.458139	0.841874
	O2225	O	0.251415	0.208761	0.908906
	O2226	O	0.140139	0.374596	0.933255
	O2227	O	0.254531	0.124918	0.775206
	C2228	C	0.234508	0.214423	0.893669
	C2229	C	0.238793	0.125136	0.897525
	C2230	C	0.234491	0.035993	0.893646
	C2231	C	0.226103	0.036063	0.885996
	C2232	C	0.221826	0.125275	0.882131
	C2233	C	0.226122	0.214315	0.886015
	C2234	C	0.212837	0.125045	0.873766
	C2235	C	0.247815	0.124863	0.905809
	C2236	C	0.186479	0.125206	0.879306
	C2237	C	0.178037	0.125231	0.891106
	C2238	C	0.174026	0.214093	0.896703
	C2239	C	0.166146	0.213964	0.907462
	C2240	C	0.162041	0.125213	0.912889
	C2241	C	0.166080	0.036343	0.907348
	C2242	C	0.173968	0.036416	0.896597
	C2243	C	0.153448	0.125444	0.924365
	C2244	C	0.185384	0.374732	0.843178
	C2245	C	0.176371	0.375100	0.834915
	C2246	C	0.172051	0.464019	0.831113
	C2247	C	0.163654	0.463711	0.823508
	C2248	C	0.159381	0.374691	0.819567
	C2249	C	0.163680	0.285603	0.823422
	C2250	C	0.172078	0.285873	0.831067
	C2251	C	0.150363	0.374818	0.811288
	C2252	C	0.211398	0.374221	0.836976
	C2253	C	0.219263	0.374149	0.824134
	C2254	C	0.223081	0.285363	0.818147
	C2255	C	0.230396	0.285480	0.806301
	C2256	C	0.234085	0.374407	0.800132
	C2257	C	0.230295	0.463186	0.806144
	C2258	C	0.222977	0.463072	0.817993
	C2259	C	0.241937	0.374449	0.787271
	H2260	H	0.233237	0.216430	0.801687
	H2261	H	0.220329	0.216133	0.822886
	H2262	H	0.237782	0.283263	0.896704
	H2263	H	0.222876	0.283097	0.882978
	H2264	H	0.198496	0.124990	0.838034
	H2265	H	0.199782	0.375012	0.878902
	H2266	H	0.140252	0.374337	0.922462
	H2267	H	0.254916	0.125442	0.785894
	H2268	H	0.175351	0.216803	0.834046
	H2269	H	0.160431	0.216659	0.820402
	H2270	H	0.163131	0.282990	0.911685
	H2271	H	0.177128	0.282986	0.892553
	H2272	H	0.160381	0.532932	0.820576
	H2273	H	0.175269	0.533338	0.834089
	H2274	H	0.177030	-0.032425	0.892361
	H2275	H	0.162984	-0.032367	0.911509
	H2276	H	0.222842	-0.032676	0.882999
	H2277	H	0.237721	-0.032889	0.896699
	H2278	H	0.220142	0.532231	0.822592
	H2279	H	0.233067	0.532075	0.801458
	Al2280	Al	0.202265	-0.500924	1.005786
	Al2281	Al	0.202323	-0.249811	1.005965
	Al2282	Al	0.139873	-0.250518	0.943143
	Al2283	Al	0.139828	-0.499888	0.943233
	O2284	O	0.211657	-0.459183	1.019573
	O2285	O	0.202650	-0.375194	0.995907
	O2286	O	0.201626	-0.125086	1.015823
	O2287	O	0.255279	-0.459538	1.054372
	O2288	O	0.191095	-0.459708	1.018408
	O2289	O	0.141725	-0.459275	1.013175
	O2290	O	0.191112	-0.291323	1.018574
	O2291	O	0.192819	-0.209283	0.991861
	O2292	O	0.149271	-0.209205	0.956924
	O2293	O	0.211695	-0.291157	1.019692
	O2294	O	0.212509	-0.209196	0.991379
	O2295	O	0.252227	-0.209501	0.937362
	O2296	O	0.141748	-0.291185	1.013126
	O2297	O	0.192801	-0.041217	0.991857
	O2298	O	0.149244	-0.041023	0.957000
	O2299	O	0.252290	-0.041251	0.937461
	O2300	O	0.212536	-0.041293	0.991455
	O2301	O	0.255341	-0.291189	1.054175
	O2302	O	0.131151	-0.124856	1.014049
	O2303	O	0.261943	-0.375271	0.930737
	C2304	C	0.237853	-0.285719	1.040321
	C2305	C	0.242388	-0.375384	1.043619
	C2306	C	0.237917	-0.464959	1.040133
	C2307	C	0.229152	-0.465015	1.033534
	C2308	C	0.224610	-0.375558	1.030285
	C2309	C	0.229093	-0.285884	1.033726
	C2310	C	0.215333	-0.375355	1.022589
	C2311	C	0.251682	-0.375400	1.051302
	C2312	C	0.186918	-0.375428	1.018349
	C2313	C	0.176290	-0.375312	1.017631
	C2314	C	0.171283	-0.285444	1.016670
	C2315	C	0.161559	-0.285635	1.014799
	C2316	C	0.156572	-0.375481	1.013907
	C2317	C	0.161571	-0.465283	1.014836
	C2318	C	0.171294	-0.465194	1.016689
	C2319	C	0.145928	-0.375244	1.013336
	C2320	C	0.189182	-0.125297	0.988867
	C2321	C	0.179889	-0.125341	0.981148
	C2322	C	0.175382	-0.035784	0.977783
	C2323	C	0.166651	-0.035695	0.971121
	C2324	C	0.162165	-0.125247	0.967652
	C2325	C	0.166665	-0.214836	0.971054
	C2326	C	0.175384	-0.214818	0.977722
	C2327	C	0.152908	-0.125138	0.959947
	C2328	C	0.215933	-0.125170	0.987035
	C2329	C	0.224549	-0.125317	0.975586
	C2330	C	0.228580	-0.214301	0.970031
	C2331	C	0.236456	-0.214093	0.959253
	C2332	C	0.240530	-0.125125	0.953808
	C2333	C	0.236503	-0.036047	0.959352
	C2334	C	0.228627	-0.036237	0.970125
	C2335	C	0.248928	-0.125405	0.941925
	H2336	H	0.239468	-0.282963	0.954966
	H2337	H	0.225497	-0.283482	0.974134
	H2338	H	0.241205	-0.216034	1.042961
	H2339	H	0.225690	-0.216295	1.031191
	H2340	H	0.202910	-0.375153	0.985076
	H2341	H	0.200516	-0.124936	1.026508
	H2342	H	0.132671	-0.124765	1.003442
	H2343	H	0.262302	-0.375133	0.941465
	H2344	H	0.178758	-0.284311	0.980311
	H2345	H	0.163263	-0.284261	0.968438
	H2346	H	0.157768	-0.215762	1.014056
	H2347	H	0.175042	-0.215628	1.017317
	H2348	H	0.163256	0.033787	0.968570
	H2349	H	0.178737	0.033869	0.980474
	H2350	H	0.175056	-0.535106	1.017360
	H2351	H	0.157838	-0.535311	1.014131
	H2352	H	0.225817	-0.534683	1.030816
	H2353	H	0.241332	-0.534798	1.042648
	H2354	H	0.225545	0.032935	0.974327
	H2355	H	0.239560	0.033128	0.955103
	Al2356	Al	0.202290	-0.000576	1.005882
	Al2357	Al	0.202323	0.250180	1.005816
	Al2358	Al	0.139828	0.249514	0.943289
	Al2359	Al	0.139813	0.000188	0.943313
	O2360	O	0.211636	0.040864	1.019686
	O2361	O	0.202683	0.124603	0.995798
	O2362	O	0.201643	0.374759	1.015678
	O2363	O	0.255357	0.041345	1.054233
	O2364	O	0.191062	0.040922	1.018425
	O2365	O	0.141715	0.041277	1.013062
	O2366	O	0.191087	0.209124	1.018374
	O2367	O	0.192835	0.290373	0.991751
	O2368	O	0.149142	0.290852	0.957156
	O2369	O	0.211685	0.209051	1.019643
	O2370	O	0.212517	0.291108	0.991296
	O2371	O	0.252339	0.290472	0.937407
	O2372	O	0.141718	0.209414	1.013273
	O2373	O	0.192820	0.458719	0.991787
	O2374	O	0.149208	0.458952	0.957060
	O2375	O	0.252359	0.458480	0.937495
	O2376	O	0.212492	0.458959	0.991292
	O2377	O	0.255305	0.209384	1.054360
	O2378	O	0.131142	0.374923	1.014114
	O2379	O	0.261946	0.124893	0.930768
	C2380	C	0.237879	0.214525	1.040197
	C2381	C	0.242403	0.125109	1.043581
	C2382	C	0.237884	0.035612	1.040197
	C2383	C	0.229132	0.035556	1.033625
	C2384	C	0.224614	0.124881	1.030265
	C2385	C	0.229119	0.214488	1.033618
	C2386	C	0.215321	0.124766	1.022637
	C2387	C	0.251704	0.125260	1.051294
	C2388	C	0.186867	0.125021	1.018252
	C2389	C	0.176250	0.125141	1.017514
	C2390	C	0.171256	0.214985	1.016649
	C2391	C	0.161525	0.215164	1.014872
	C2392	C	0.156527	0.125401	1.013903
	C2393	C	0.161543	0.035493	1.014697
	C2394	C	0.171274	0.035314	1.016498
	C2395	C	0.145913	0.125264	1.013297
	C2396	C	0.189213	0.374480	0.988772
	C2397	C	0.179902	0.374544	0.981068
	C2398	C	0.175401	0.464313	0.977626
	C2399	C	0.166654	0.464443	0.970993
	C2400	C	0.162151	0.374725	0.967671
	C2401	C	0.166637	0.285022	0.971102
	C2402	C	0.175382	0.285046	0.977711
	C2403	C	0.152825	0.374810	0.960035
	C2404	C	0.215922	0.375084	0.986932
	C2405	C	0.224545	0.374853	0.975482
	C2406	C	0.228613	0.285952	0.970083
	C2407	C	0.236526	0.285805	0.959343
	C2408	C	0.240578	0.374489	0.953792
	C2409	C	0.236551	0.463405	0.959267
	C2410	C	0.228628	0.463611	0.970012
	C2411	C	0.249035	0.374522	0.942007
	H2412	H	0.239556	0.216917	0.955180
	H2413	H	0.225584	0.217132	0.974401
	H2414	H	0.241275	0.283865	1.042716
	H2415	H	0.225711	0.283851	1.031039
	H2416	H	0.202824	0.124096	0.984974
	H2417	H	0.200335	0.374980	1.026281
	H2418	H	0.132522	0.374816	1.003464
	H2419	H	0.262190	0.124877	0.941434
	H2420	H	0.178769	0.215225	0.980298
	H2421	H	0.163240	0.215742	0.968586
	H2422	H	0.157778	0.285388	1.014301
	H2423	H	0.175006	0.284904	1.017471
	H2424	H	0.163239	0.533682	0.968352
	H2425	H	0.178766	0.534019	0.980231
	H2426	H	0.175021	-0.034394	1.017201
	H2427	H	0.157762	-0.034336	1.013968
	H2428	H	0.225748	-0.034003	1.031057
	H2429	H	0.241277	-0.034350	1.042758
	H2430	H	0.225608	0.532459	0.974221
	H2431	H	0.239605	0.531964	0.955041
	Al2432	Al	0.327332	-0.500182	0.130856
	Al2433	Al	0.327363	-0.249257	0.130625
	Al2434	Al	0.264802	-0.250378	0.068330
	Al2435	Al	0.264795	-0.499627	0.068334
	O2436	O	0.336720	-0.458613	0.144517
	O2437	O	0.327642	-0.375042	0.120761
	O2438	O	0.326636	-0.124935	0.140550
	O2439	O	0.380397	-0.458115	0.179035
	O2440	O	0.316131	-0.458592	0.143485
	O2441	O	0.266761	-0.458707	0.138067
	O2442	O	0.316110	-0.290278	0.143228
	O2443	O	0.317866	-0.208970	0.116588
	O2444	O	0.274188	-0.209260	0.082059
	O2445	O	0.336752	-0.290531	0.144486
	O2446	O	0.337579	-0.209073	0.116115
	O2447	O	0.377440	-0.209198	0.062286
	O2448	O	0.266769	-0.290564	0.138032
	O2449	O	0.317860	-0.041035	0.116583
	O2450	O	0.274155	-0.041245	0.082055
	O2451	O	0.377475	-0.041173	0.062303
	O2452	O	0.337578	-0.041211	0.116108
	O2453	O	0.380284	-0.290318	0.179274
	O2454	O	0.256228	-0.124691	0.138959
	O2455	O	0.387052	-0.374964	0.055603
	C2456	C	0.362884	-0.285208	0.165094
	C2457	C	0.367362	-0.374623	0.168571
	C2458	C	0.362858	-0.464169	0.165261
	C2459	C	0.354111	-0.464285	0.158643
	C2460	C	0.349638	-0.374757	0.155184
	C2461	C	0.354134	-0.285282	0.158474
	C2462	C	0.340361	-0.374589	0.147525
	C2463	C	0.376682	-0.374272	0.176206
	C2464	C	0.311910	-0.374503	0.143258
	C2465	C	0.301306	-0.374603	0.142484
	C2466	C	0.296314	-0.284698	0.141559
	C2467	C	0.286568	-0.284617	0.139743
	C2468	C	0.281583	-0.374487	0.138834
	C2469	C	0.286578	-0.464381	0.139721
	C2470	C	0.296321	-0.464401	0.141536
	C2471	C	0.270977	-0.374705	0.138208
	C2472	C	0.314202	-0.125179	0.113638
	C2473	C	0.304911	-0.124961	0.105927
	C2474	C	0.300432	-0.035504	0.102487
	C2475	C	0.291657	-0.035610	0.095896
	C2476	C	0.287144	-0.125001	0.092553
	C2477	C	0.291619	-0.214430	0.095969
	C2478	C	0.300384	-0.214362	0.102564
	C2479	C	0.277820	-0.125033	0.085020
	C2480	C	0.341005	-0.125107	0.111751
	C2481	C	0.349621	-0.125028	0.100315
	C2482	C	0.353722	-0.214002	0.094874
	C2483	C	0.361642	-0.213988	0.084151
	C2484	C	0.365697	-0.124950	0.078653
	C2485	C	0.361616	-0.035900	0.084129
	C2486	C	0.353696	-0.035994	0.094851
	C2487	C	0.374097	-0.125142	0.066788
	H2488	H	0.364672	-0.283033	0.079930
	H2489	H	0.350664	-0.283115	0.099054
	H2490	H	0.366248	-0.215339	0.167639
	H2491	H	0.350740	-0.216011	0.155846
	H2492	H	0.327738	-0.376180	0.109927
	H2493	H	0.325215	-0.124601	0.151255
	H2494	H	0.257852	-0.124372	0.128426
	H2495	H	0.387296	-0.374426	0.066303
	H2496	H	0.303707	-0.283747	0.105270
	H2497	H	0.288208	-0.283743	0.093571
	H2498	H	0.282817	-0.214736	0.138996
	H2499	H	0.300057	-0.214872	0.142256
	H2500	H	0.288240	0.033802	0.093355
	H2501	H	0.303750	0.034269	0.105141
	H2502	H	0.300074	-0.534410	0.142181
	H2503	H	0.282865	-0.534427	0.138931
	H2504	H	0.350711	-0.533734	0.156188
	H2505	H	0.366247	-0.533780	0.167945
	H2506	H	0.350603	0.033156	0.098977
	H2507	H	0.364600	0.033221	0.079834
	Al2508	Al	0.327343	-0.000555	0.130659
	Al2509	Al	0.327356	0.250396	0.130844
	Al2510	Al	0.264820	0.249686	0.068309
	Al2511	Al	0.264792	0.000359	0.068309
	O2512	O	0.336719	0.040853	0.144406
	O2513	O	0.327675	0.125077	0.120718
	O2514	O	0.326582	0.375161	0.140710
	O2515	O	0.380323	0.040720	0.179243
	O2516	O	0.316083	0.040420	0.143267
	O2517	O	0.266726	0.040673	0.138123
	O2518	O	0.316099	0.208803	0.143321
	O2519	O	0.317903	0.291172	0.116654
	O2520	O	0.274294	0.290955	0.081943
	O2521	O	0.336714	0.208958	0.144593
	O2522	O	0.337602	0.291054	0.116383
	O2523	O	0.377302	0.291067	0.062146
	O2524	O	0.266748	0.208913	0.138071
	O2525	O	0.317840	0.459060	0.116824
	O2526	O	0.274226	0.458892	0.081940
	O2527	O	0.377313	0.458876	0.062198
	O2528	O	0.337538	0.458689	0.116230
	O2529	O	0.380320	0.208786	0.179199
	O2530	O	0.256220	0.375105	0.138981
	O2531	O	0.387037	0.125118	0.055607
	C2532	C	0.362895	0.214282	0.165108
	C2533	C	0.367388	0.124627	0.168556
	C2534	C	0.362899	0.035015	0.165103
	C2535	C	0.354142	0.034906	0.158469
	C2536	C	0.349630	0.124517	0.155129
	C2537	C	0.354134	0.214238	0.158473
	C2538	C	0.340348	0.124678	0.147467
	C2539	C	0.376682	0.124638	0.176261
	C2540	C	0.311892	0.124690	0.143192
	C2541	C	0.301284	0.124807	0.142491
	C2542	C	0.296299	0.214564	0.141536
	C2543	C	0.286580	0.214397	0.139690
	C2544	C	0.281563	0.124669	0.138829
	C2545	C	0.286555	0.034839	0.139710
	C2546	C	0.296284	0.034996	0.141538
	C2547	C	0.270938	0.124716	0.138276
	C2548	C	0.314249	0.375047	0.113735
	C2549	C	0.304935	0.375100	0.106071
	C2550	C	0.300444	0.464502	0.102558
	C2551	C	0.291692	0.464514	0.095925
	C2552	C	0.287169	0.375120	0.092619
	C2553	C	0.291673	0.285789	0.096061
	C2554	C	0.300431	0.285758	0.102684
	C2555	C	0.277918	0.374953	0.084909
	C2556	C	0.341019	0.374949	0.111968
	C2557	C	0.349566	0.374964	0.100418
	C2558	C	0.353654	0.286168	0.094953
	C2559	C	0.361533	0.286323	0.084132
	C2560	C	0.365573	0.375183	0.078594
	C2561	C	0.361496	0.463857	0.084097
	C2562	C	0.353621	0.463766	0.094910
	C2563	C	0.373999	0.374806	0.066736
	H2564	H	0.364592	0.217494	0.079988
	H2565	H	0.350681	0.217529	0.099247
	H2566	H	0.366282	0.283800	0.167661
	H2567	H	0.350792	0.284011	0.155832
	H2568	H	0.327924	0.124834	0.109905
	H2569	H	0.325176	0.375430	0.151355
	H2570	H	0.257673	0.375149	0.128324
	H2571	H	0.387254	0.125523	0.066331
	H2572	H	0.303829	0.216037	0.105266
	H2573	H	0.288295	0.216319	0.093477
	H2574	H	0.282836	0.284225	0.138910
	H2575	H	0.300041	0.284421	0.142196
	H2576	H	0.288354	0.533876	0.093191
	H2577	H	0.303853	0.534009	0.105050
	H2578	H	0.300036	-0.034641	0.142241
	H2579	H	0.282785	-0.035114	0.138972
	H2580	H	0.350769	-0.034694	0.155798
	H2581	H	0.366247	-0.034994	0.167628
	H2582	H	0.350581	0.532539	0.099191
	H2583	H	0.364540	0.532497	0.079859
	Al2584	Al	0.317549	-0.500137	0.211553
	Al2585	Al	0.317566	-0.250187	0.211424
	Al2586	Al	0.255061	-0.250019	0.148986
	Al2587	Al	0.255055	-0.499651	0.149000
	O2588	O	0.326505	-0.459035	0.226490
	O2589	O	0.318704	-0.375355	0.201459
	O2590	O	0.316420	-0.125151	0.221420
	O2591	O	0.371168	-0.459501	0.258920
	O2592	O	0.305852	-0.459069	0.222420
	O2593	O	0.256637	-0.458863	0.214935
	O2594	O	0.305834	-0.290916	0.222449
	O2595	O	0.308682	-0.209052	0.196320
	O2596	O	0.264008	-0.209149	0.163934
	O2597	O	0.326520	-0.291337	0.226442
	O2598	O	0.329254	-0.208930	0.200406
	O2599	O	0.378653	-0.208901	0.205782
	O2600	O	0.256640	-0.291069	0.215083
	O2601	O	0.308726	-0.041297	0.196280
	O2602	O	0.263912	-0.041233	0.164123
	O2603	O	0.378630	-0.040894	0.205868
	O2604	O	0.329255	-0.040805	0.200495
	O2605	O	0.371208	-0.291869	0.258866
	O2606	O	0.246098	-0.124931	0.215905
	O2607	O	0.389173	-0.374949	0.203026
	C2608	C	0.353416	-0.285607	0.245427
	C2609	C	0.358042	-0.375354	0.248531
	C2610	C	0.353409	-0.464827	0.245391
	C2611	C	0.344420	-0.464587	0.239510
	C2612	C	0.339759	-0.375002	0.236510
	C2613	C	0.344431	-0.285474	0.239530
	C2614	C	0.330245	-0.375048	0.229298
	C2615	C	0.367490	-0.375617	0.255958
	C2616	C	0.301664	-0.375011	0.222089
	C2617	C	0.291072	-0.374923	0.221000
	C2618	C	0.286110	-0.285021	0.219686
	C2619	C	0.276428	-0.285058	0.217409
	C2620	C	0.271412	-0.374944	0.216428
	C2621	C	0.276399	-0.464895	0.217656
	C2622	C	0.286072	-0.464787	0.219954
	C2623	C	0.260839	-0.374980	0.215325
	C2624	C	0.304991	-0.125138	0.193388
	C2625	C	0.295524	-0.125192	0.186023
	C2626	C	0.290822	-0.035638	0.183048
	C2627	C	0.281817	-0.035457	0.177199
	C2628	C	0.277164	-0.124988	0.174134
	C2629	C	0.281839	-0.214763	0.177131
	C2630	C	0.290841	-0.214725	0.182947
	C2631	C	0.267689	-0.125158	0.166887
	C2632	C	0.333456	-0.124968	0.200590
	C2633	C	0.344079	-0.125006	0.201189
	C2634	C	0.349054	-0.214774	0.202173
	C2635	C	0.358783	-0.214696	0.204038
	C2636	C	0.363802	-0.124984	0.204937
	C2637	C	0.358808	-0.035206	0.204009
	C2638	C	0.349081	-0.035160	0.202136
	C2639	C	0.374415	-0.124883	0.205690
	H2640	H	0.362508	-0.284628	0.204791
	H2641	H	0.345292	-0.284530	0.201479
	H2642	H	0.356895	-0.215806	0.247698
	H2643	H	0.340984	-0.215208	0.237353
	H2644	H	0.320184	-0.375399	0.190877
	H2645	H	0.314763	-0.125390	0.231992
	H2646	H	0.247527	-0.125328	0.205313
	H2647	H	0.387881	-0.374966	0.213700
	H2648	H	0.294321	-0.284924	0.185200
	H2649	H	0.278391	-0.284755	0.174906
	H2650	H	0.272698	-0.215225	0.216400
	H2651	H	0.289861	-0.215097	0.220497
	H2652	H	0.278324	0.034446	0.175009
	H2653	H	0.294253	0.034651	0.185338
	H2654	H	0.289786	-0.534917	0.220931
	H2655	H	0.272666	-0.534939	0.216808
	H2656	H	0.340945	-0.534611	0.237304
	H2657	H	0.356823	-0.534974	0.247668
	H2658	H	0.345331	0.034823	0.201412
	H2659	H	0.362588	0.034710	0.204720
	Al2660	Al	0.317542	0.000119	0.211412
	Al2661	Al	0.317551	0.250129	0.211506
	Al2662	Al	0.255042	0.250256	0.148955
	Al2663	Al	0.255043	0.000023	0.149095
	O2664	O	0.326554	0.041160	0.226387
	O2665	O	0.318665	0.125317	0.201483
	O2666	O	0.316328	0.374859	0.221513
	O2667	O	0.371162	0.041159	0.258976
	O2668	O	0.305844	0.041101	0.222366
	O2669	O	0.256681	0.040993	0.215100
	O2670	O	0.305859	0.209137	0.222438
	O2671	O	0.308612	0.290889	0.196456
	O2672	O	0.263954	0.291211	0.163953
	O2673	O	0.326516	0.208980	0.226488
	O2674	O	0.329202	0.291170	0.200541
	O2675	O	0.378616	0.290802	0.205675
	O2676	O	0.256624	0.209102	0.215004
	O2677	O	0.308679	0.458781	0.196361
	O2678	O	0.263975	0.459284	0.163979
	O2679	O	0.378573	0.459289	0.205686
	O2680	O	0.329252	0.459240	0.200706
	O2681	O	0.371191	0.209061	0.258907
	O2682	O	0.246132	0.374993	0.215895
	O2683	O	0.389170	0.124727	0.203103
	C2684	C	0.353393	0.214597	0.245548
	C2685	C	0.358011	0.124924	0.248634
	C2686	C	0.353416	0.035239	0.245410
	C2687	C	0.344425	0.035319	0.239497
	C2688	C	0.339785	0.125025	0.236521
	C2689	C	0.344409	0.214792	0.239639
	C2690	C	0.330265	0.124970	0.229302
	C2691	C	0.367483	0.125028	0.255976
	C2692	C	0.301654	0.125168	0.222138
	C2693	C	0.291063	0.125440	0.220975
	C2694	C	0.286123	0.215378	0.219738
	C2695	C	0.276444	0.215207	0.217433
	C2696	C	0.271459	0.125413	0.216419
	C2697	C	0.276402	0.035581	0.217634
	C2698	C	0.286080	0.035634	0.219921
	C2699	C	0.260842	0.125155	0.215373
	C2700	C	0.304982	0.374873	0.193414
	C2701	C	0.295496	0.374887	0.186036
	C2702	C	0.290836	0.464337	0.183008
	C2703	C	0.281848	0.464507	0.177128
	C2704	C	0.277214	0.374852	0.173991
	C2705	C	0.281883	0.285248	0.177005
	C2706	C	0.290886	0.285077	0.182857
	C2707	C	0.267683	0.375183	0.166799
	C2708	C	0.333431	0.375054	0.200722
	C2709	C	0.344062	0.374901	0.201189
	C2710	C	0.349041	0.285068	0.202121
	C2711	C	0.358773	0.285142	0.203899
	C2712	C	0.363789	0.374777	0.204819
	C2713	C	0.358822	0.464679	0.203830
	C2714	C	0.349098	0.464579	0.202022
	C2715	C	0.374405	0.374927	0.205537
	H2716	H	0.362548	0.215618	0.204660
	H2717	H	0.345302	0.215118	0.201529
	H2718	H	0.356815	0.284797	0.247850
	H2719	H	0.340941	0.284750	0.237430
	H2720	H	0.320205	0.125610	0.190899
	H2721	H	0.314660	0.375166	0.232122
	H2722	H	0.247661	0.374933	0.205271
	H2723	H	0.387827	0.125071	0.213807
	H2724	H	0.294337	0.214966	0.185022
	H2725	H	0.278411	0.215260	0.174724
	H2726	H	0.272729	0.285030	0.216307
	H2727	H	0.289853	0.285648	0.220544
	H2728	H	0.278402	0.535041	0.174952
	H2729	H	0.294299	0.534346	0.185307
	H2730	H	0.289804	-0.034383	0.220881
	H2731	H	0.272700	-0.034612	0.216723
	H2732	H	0.340994	-0.034722	0.237186
	H2733	H	0.356876	-0.034960	0.247593
	H2734	H	0.345330	0.534520	0.201343
	H2735	H	0.362557	0.534375	0.204517
	Al2736	Al	0.307469	-0.500014	0.288449
	Al2737	Al	0.307427	-0.250159	0.288450
	Al2738	Al	0.244919	-0.249894	0.225901
	Al2739	Al	0.244945	-0.500119	0.225874
	O2740	O	0.316340	-0.459076	0.303580
	O2741	O	0.308664	-0.375068	0.278428
	O2742	O	0.306324	-0.125091	0.298382
	O2743	O	0.361057	-0.458718	0.335770
	O2744	O	0.295762	-0.458899	0.299425
	O2745	O	0.246389	-0.459360	0.294181
	O2746	O	0.295768	-0.290936	0.299486
	O2747	O	0.298439	-0.208953	0.273507
	O2748	O	0.253771	-0.208608	0.241066
	O2749	O	0.316373	-0.291339	0.303445
	O2750	O	0.319130	-0.209268	0.277453
	O2751	O	0.368321	-0.209595	0.284806
	O2752	O	0.246385	-0.291117	0.294075
	O2753	O	0.298468	-0.041093	0.273454
	O2754	O	0.253811	-0.040701	0.240965
	O2755	O	0.368357	-0.041290	0.284993
	O2756	O	0.319161	-0.041085	0.277443
	O2757	O	0.361042	-0.290850	0.335827
	O2758	O	0.235897	-0.124673	0.296847
	O2759	O	0.378948	-0.375182	0.284017
	C2760	C	0.343129	-0.285106	0.322821
	C2761	C	0.347797	-0.374824	0.325790
	C2762	C	0.343126	-0.464355	0.322816
	C2763	C	0.334125	-0.464538	0.316983
	C2764	C	0.329499	-0.374876	0.313837
	C2765	C	0.334132	-0.285238	0.316962
	C2766	C	0.320040	-0.375084	0.306501
	C2767	C	0.357303	-0.374708	0.332996
	C2768	C	0.291576	-0.374871	0.299282
	C2769	C	0.280937	-0.375011	0.298665
	C2770	C	0.275959	-0.285235	0.297755
	C2771	C	0.266224	-0.285283	0.295896
	C2772	C	0.261226	-0.374975	0.294943
	C2773	C	0.266212	-0.464664	0.295889
	C2774	C	0.275947	-0.464736	0.297767
	C2775	C	0.250589	-0.375177	0.294275
	C2776	C	0.294730	-0.124870	0.270581
	C2777	C	0.285221	-0.124908	0.263362
	C2778	C	0.280537	-0.035228	0.260406
	C2779	C	0.271546	-0.035056	0.254537
	C2780	C	0.266942	-0.124592	0.251285
	C2781	C	0.271631	-0.214346	0.254205
	C2782	C	0.280616	-0.214514	0.260097
	C2783	C	0.257495	-0.124657	0.243888
	C2784	C	0.323360	-0.125199	0.277784
	C2785	C	0.333927	-0.125087	0.278906
	C2786	C	0.338907	-0.214911	0.280066
	C2787	C	0.348593	-0.214731	0.282282
	C2788	C	0.353570	-0.124885	0.283432
	C2789	C	0.348591	-0.034977	0.282235
	C2790	C	0.338921	-0.035122	0.279966
	C2791	C	0.364150	-0.125299	0.284559
	H2792	H	0.352339	-0.284733	0.283188
	H2793	H	0.335172	-0.284867	0.279198
	H2794	H	0.346619	-0.215021	0.324931
	H2795	H	0.330693	-0.215381	0.314563
	H2796	H	0.310338	-0.374995	0.267837
	H2797	H	0.304786	-0.124722	0.308964
	H2798	H	0.237147	-0.124855	0.286221
	H2799	H	0.377391	-0.375273	0.294567
	H2800	H	0.284074	-0.284632	0.262276
	H2801	H	0.268160	-0.284401	0.251913
	H2802	H	0.262473	-0.215384	0.295123
	H2803	H	0.279699	-0.215329	0.298406
	H2804	H	0.268033	0.035119	0.252493
	H2805	H	0.283964	0.034967	0.262868
	H2806	H	0.279708	-0.534762	0.298477
	H2807	H	0.262487	-0.534918	0.295112
	H2808	H	0.330736	-0.534634	0.314665
	H2809	H	0.346622	-0.534201	0.324946
	H2810	H	0.335194	0.034869	0.279036
	H2811	H	0.352317	0.034914	0.283156
	Al2812	Al	0.307452	-0.000227	0.288410
	Al2813	Al	0.307491	0.249656	0.288378
	Al2814	Al	0.244958	0.250112	0.225931
	Al2815	Al	0.244911	0.000118	0.225914
	O2816	O	0.316331	0.040799	0.303565
	O2817	O	0.308596	0.124804	0.278408
	O2818	O	0.306332	0.374626	0.298404
	O2819	O	0.361063	0.040863	0.335791
	O2820	O	0.295762	0.040590	0.299275
	O2821	O	0.246389	0.041024	0.294217
	O2822	O	0.295759	0.208875	0.299280
	O2823	O	0.298546	0.291073	0.273435
	O2824	O	0.253843	0.291233	0.241037
	O2825	O	0.316380	0.208520	0.303464
	O2826	O	0.319188	0.290374	0.277501
	O2827	O	0.368347	0.290797	0.284940
	O2828	O	0.246387	0.209215	0.294212
	O2829	O	0.298582	0.458973	0.273315
	O2830	O	0.253913	0.459128	0.240922
	O2831	O	0.368381	0.458822	0.284908
	O2832	O	0.319146	0.458694	0.277450
	O2833	O	0.361078	0.208558	0.335859
	O2834	O	0.235816	0.375095	0.296850
	O2835	O	0.378905	0.125239	0.284018
	C2836	C	0.343167	0.214377	0.322758
	C2837	C	0.347853	0.124903	0.325717
	C2838	C	0.343186	0.035266	0.322674
	C2839	C	0.334185	0.035194	0.316837
	C2840	C	0.329533	0.124704	0.313790
	C2841	C	0.334167	0.214249	0.316903
	C2842	C	0.320072	0.124692	0.306458
	C2843	C	0.357332	0.124801	0.332976
	C2844	C	0.291574	0.124737	0.299141
	C2845	C	0.280954	0.124761	0.298623
	C2846	C	0.275957	0.214589	0.297885
	C2847	C	0.266218	0.214846	0.296092
	C2848	C	0.261228	0.125145	0.295078
	C2849	C	0.266212	0.035143	0.295890
	C2850	C	0.275947	0.035088	0.297696
	C2851	C	0.250599	0.125198	0.294331
	C2852	C	0.294827	0.374996	0.270558
	C2853	C	0.285291	0.375081	0.263385
	C2854	C	0.280608	0.464712	0.260383
	C2855	C	0.271620	0.464856	0.254518
	C2856	C	0.267010	0.375146	0.251355
	C2857	C	0.271660	0.285466	0.254436
	C2858	C	0.280647	0.285369	0.260308
	C2859	C	0.257579	0.375110	0.243886
	C2860	C	0.323361	0.374573	0.277817
	C2861	C	0.333949	0.374697	0.278903
	C2862	C	0.338935	0.284825	0.280137
	C2863	C	0.348605	0.284980	0.282431
	C2864	C	0.353589	0.375095	0.283506
	C2865	C	0.348598	0.464996	0.282366
	C2866	C	0.338917	0.464769	0.280050
	C2867	C	0.364160	0.374945	0.284615
	H2868	H	0.352344	0.215090	0.283303
	H2869	H	0.335222	0.214805	0.279248
	H2870	H	0.346605	0.284563	0.325007
	H2871	H	0.330711	0.284568	0.314655
	H2872	H	0.310060	0.124200	0.267756
	H2873	H	0.304744	0.374907	0.308959
	H2874	H	0.237233	0.375150	0.286178
	H2875	H	0.377263	0.125399	0.294596
	H2876	H	0.284110	0.215422	0.262591
	H2877	H	0.268214	0.215348	0.252207
	H2878	H	0.262466	0.284841	0.295465
	H2879	H	0.279704	0.284592	0.298704
	H2880	H	0.268142	0.535036	0.252320
	H2881	H	0.284041	0.534887	0.262755
	H2882	H	0.279691	-0.034944	0.298358
	H2883	H	0.262458	-0.034712	0.295114
	H2884	H	0.330748	-0.034873	0.314499
	H2885	H	0.346635	-0.034831	0.324859
	H2886	H	0.335157	0.534541	0.279105
	H2887	H	0.352349	0.535047	0.283214
	Al2888	Al	0.297702	-0.499544	0.369183
	Al2889	Al	0.297731	-0.250521	0.369177
	Al2890	Al	0.235182	-0.249268	0.306695
	Al2891	Al	0.235151	-0.500307	0.306777
	O2892	O	0.307188	-0.459241	0.383242
	O2893	O	0.298365	-0.374845	0.359265
	O2894	O	0.297352	-0.124810	0.379109
	O2895	O	0.350803	-0.459565	0.417914
	O2896	O	0.287513	-0.458666	0.383750
	O2897	O	0.247674	-0.458804	0.437656
	O2898	O	0.287485	-0.290888	0.383724
	O2899	O	0.288310	-0.208945	0.355454
	O2900	O	0.244716	-0.209462	0.320635
	O2901	O	0.307235	-0.291146	0.383109
	O2902	O	0.308946	-0.209063	0.356524
	O2903	O	0.358296	-0.209037	0.361964
	O2904	O	0.247728	-0.290605	0.437732
	O2905	O	0.288294	-0.040965	0.355384
	O2906	O	0.244644	-0.041450	0.320873
	O2907	O	0.358262	-0.040763	0.361804
	O2908	O	0.308964	-0.040785	0.356535
	O2909	O	0.350812	-0.291478	0.417901
	O2910	O	0.238020	-0.125149	0.444371
	O2911	O	0.368786	-0.375564	0.360823
	C2912	C	0.333394	-0.286145	0.403807
	C2913	C	0.337869	-0.375704	0.407253
	C2914	C	0.333360	-0.465160	0.403909
	C2915	C	0.324618	-0.465030	0.397268
	C2916	C	0.320137	-0.375403	0.393841
	C2917	C	0.324647	-0.285868	0.397156
	C2918	C	0.310844	-0.375285	0.386149
	C2919	C	0.347146	-0.375475	0.414956
	C2920	C	0.284056	-0.374655	0.388058
	C2921	C	0.275442	-0.374854	0.399488
	C2922	C	0.271340	-0.285845	0.404947
	C2923	C	0.263428	-0.285745	0.415705
	C2924	C	0.259390	-0.374722	0.421251
	C2925	C	0.263442	-0.463597	0.415701
	C2926	C	0.271338	-0.463653	0.404934
	C2927	C	0.251019	-0.374715	0.433126
	C2928	C	0.284652	-0.125102	0.352487
	C2929	C	0.275323	-0.125399	0.344886
	C2930	C	0.270907	-0.035856	0.341256
	C2931	C	0.262160	-0.036062	0.334634
	C2932	C	0.257606	-0.125681	0.331465
	C2933	C	0.262025	-0.215244	0.335102
	C2934	C	0.270772	-0.215083	0.341756
	C2935	C	0.248324	-0.125475	0.323738
	C2936	C	0.313170	-0.124979	0.356631
	C2937	C	0.323763	-0.125034	0.357385
	C2938	C	0.328753	-0.214886	0.358329
	C2939	C	0.338480	-0.214816	0.360215
	C2940	C	0.343473	-0.124982	0.361168
	C2941	C	0.338502	-0.034947	0.360137
	C2942	C	0.328771	-0.035045	0.358246
	C2943	C	0.354081	-0.124960	0.361758
	H2944	H	0.342230	-0.284776	0.360976
	H2945	H	0.325039	-0.284976	0.357551
	H2946	H	0.336826	-0.216688	0.406320
	H2947	H	0.321288	-0.216032	0.394472
	H2948	H	0.299785	-0.375117	0.348718
	H2949	H	0.296968	-0.125716	0.389904
	H2950	H	0.237649	-0.124982	0.433606
	H2951	H	0.367069	-0.375926	0.371507
	H2952	H	0.274137	-0.284765	0.344419
	H2953	H	0.258610	-0.284981	0.332703
	H2954	H	0.260388	-0.216889	0.419949
	H2955	H	0.274362	-0.216922	0.400723
	H2956	H	0.258890	0.033785	0.331851
	H2957	H	0.274359	0.033794	0.343543
	H2958	H	0.274362	-0.532891	0.400710
	H2959	H	0.260378	-0.532594	0.419908
	H2960	H	0.321245	-0.534571	0.394702
	H2961	H	0.336726	-0.534665	0.406493
	H2962	H	0.325014	0.034818	0.357397
	H2963	H	0.342264	0.035035	0.360793
	Al2964	Al	0.297740	0.000495	0.369129
	Al2965	Al	0.297701	0.249650	0.369159
	Al2966	Al	0.235147	0.250813	0.306760
	Al2967	Al	0.235159	-0.000421	0.306784
	O2968	O	0.307215	0.040999	0.383174
	O2969	O	0.298437	0.125123	0.359225
	O2970	O	0.297312	0.375131	0.379133
	O2971	O	0.350768	0.041266	0.417972
	O2972	O	0.287484	0.041267	0.383646
	O2973	O	0.247682	0.040527	0.437696
	O2974	O	0.287453	0.208930	0.383681
	O2975	O	0.288303	0.291136	0.355431
	O2976	O	0.244657	0.291289	0.320729
	O2977	O	0.307175	0.209216	0.383173
	O2978	O	0.308935	0.291302	0.356595
	O2979	O	0.358291	0.291256	0.361820
	O2980	O	0.247686	0.208536	0.437648
	O2981	O	0.288300	0.459227	0.355408
	O2982	O	0.244685	0.459591	0.320739
	O2983	O	0.358294	0.459431	0.361784
	O2984	O	0.308923	0.459661	0.356645
	O2985	O	0.350742	0.209246	0.418113
	O2986	O	0.238105	0.374835	0.444303
	O2987	O	0.368816	0.124734	0.360909
	C2988	C	0.333361	0.214996	0.403864
	C2989	C	0.337857	0.125383	0.407238
	C2990	C	0.333390	0.035856	0.403759
	C2991	C	0.324653	0.036099	0.397113
	C2992	C	0.320129	0.125598	0.393800
	C2993	C	0.324641	0.215014	0.397200
	C2994	C	0.310839	0.125301	0.386121
	C2995	C	0.347101	0.125271	0.415062
	C2996	C	0.284056	0.124766	0.388045
	C2997	C	0.275460	0.124388	0.399527
	C2998	C	0.271421	0.213352	0.405070
	C2999	C	0.263526	0.213109	0.415856
	C3000	C	0.259429	0.124093	0.421279
	C3001	C	0.263437	0.035160	0.415645
	C3002	C	0.271336	0.035124	0.404843
	C3003	C	0.251017	0.124399	0.433157
	C3004	C	0.284674	0.375167	0.352439
	C3005	C	0.275376	0.374948	0.344724
	C3006	C	0.270892	0.464467	0.341280
	C3007	C	0.262135	0.464493	0.334688
	C3008	C	0.257635	0.374990	0.331358
	C3009	C	0.262076	0.285471	0.334932
	C3010	C	0.270828	0.285493	0.341534
	C3011	C	0.248313	0.375314	0.323711
	C3012	C	0.313134	0.375441	0.356697
	C3013	C	0.323742	0.375428	0.357380
	C3014	C	0.328732	0.285615	0.358264
	C3015	C	0.338481	0.285550	0.360025
	C3016	C	0.343462	0.375232	0.360964
	C3017	C	0.338461	0.464937	0.360100
	C3018	C	0.328725	0.465102	0.358316
	C3019	C	0.354091	0.375248	0.361604
	H3020	H	0.342221	0.215640	0.360719
	H3021	H	0.324964	0.215848	0.357560
	H3022	H	0.336753	0.284551	0.406483
	H3023	H	0.321307	0.284695	0.394576
	H3024	H	0.299806	0.125029	0.348576
	H3025	H	0.296929	0.374614	0.389920
	H3026	H	0.237788	0.375735	0.433582
	H3027	H	0.367228	0.124527	0.371544
	H3028	H	0.274182	0.216037	0.344251
	H3029	H	0.258677	0.215912	0.332471
	H3030	H	0.260542	0.282344	0.420137
	H3031	H	0.274497	0.282376	0.400978
	H3032	H	0.258768	0.534069	0.332037
	H3033	H	0.274311	0.533907	0.343752
	H3034	H	0.274336	-0.034095	0.400558
	H3035	H	0.260360	-0.034168	0.419781
	H3036	H	0.321301	-0.033606	0.394424
	H3037	H	0.336779	-0.033625	0.406299
	H3038	H	0.325012	0.534836	0.357640
	H3039	H	0.342226	0.534974	0.360845
	Al3040	Al	0.300881	-0.499823	0.516573
	Al3041	Al	0.300872	-0.250078	0.516476
	Al3042	Al	0.238409	-0.250170	0.454080
	Al3043	Al	0.238440	-0.500176	0.454073
	O3044	O	0.311120	-0.459025	0.528660
	O3045	O	0.300567	-0.374955	0.506781
	O3046	O	0.301293	-0.125168	0.526201
	O3047	O	0.353171	-0.458774	0.566834
	O3048	O	0.291787	-0.458912	0.533124
	O3049	O	0.255056	-0.459139	0.592780
	O3050	O	0.291744	-0.290841	0.533103
	O3051	O	0.290698	-0.209014	0.504366
	O3052	O	0.248642	-0.208836	0.466165
	O3053	O	0.311100	-0.290831	0.528554
	O3054	O	0.310196	-0.209136	0.500160
	O3055	O	0.349979	-0.209508	0.446233
	O3056	O	0.254992	-0.291234	0.592665
	O3057	O	0.290768	-0.040844	0.504344
	O3058	O	0.248637	-0.040614	0.466174
	O3059	O	0.349950	-0.041749	0.446232
	O3060	O	0.310209	-0.041064	0.500215
	O3061	O	0.353225	-0.290468	0.566769
	O3062	O	0.245575	-0.124926	0.599751
	O3063	O	0.359834	-0.375279	0.441638
	C3064	C	0.336345	-0.285158	0.551518
	C3065	C	0.340614	-0.374321	0.555417
	C3066	C	0.336292	-0.463506	0.551587
	C3067	C	0.327907	-0.463623	0.543956
	C3068	C	0.323653	-0.374506	0.540037
	C3069	C	0.327949	-0.285304	0.543880
	C3070	C	0.314648	-0.374559	0.531749
	C3071	C	0.349666	-0.374584	0.563642
	C3072	C	0.288636	-0.375032	0.538041
	C3073	C	0.280720	-0.375091	0.550795
	C3074	C	0.276918	-0.286191	0.556791
	C3075	C	0.269626	-0.286254	0.568689
	C3076	C	0.265959	-0.375432	0.574855
	C3077	C	0.269731	-0.464343	0.568816
	C3078	C	0.277026	-0.464129	0.556909
	C3079	C	0.258141	-0.375186	0.587809
	C3080	C	0.287197	-0.124596	0.501212
	C3081	C	0.278215	-0.124774	0.492853
	C3082	C	0.273961	-0.035696	0.488888
	C3083	C	0.265564	-0.035636	0.481310
	C3084	C	0.261220	-0.124728	0.477581
	C3085	C	0.265494	-0.213879	0.481510
	C3086	C	0.273904	-0.213943	0.489071
	C3087	C	0.252184	-0.124735	0.469322
	C3088	C	0.313511	-0.125158	0.495651
	C3089	C	0.321939	-0.125154	0.483841
	C3090	C	0.325995	-0.214109	0.478398
	C3091	C	0.333871	-0.214162	0.467590
	C3092	C	0.337914	-0.125473	0.462038
	C3093	C	0.333820	-0.036548	0.467414
	C3094	C	0.325940	-0.036332	0.478195
	C3095	C	0.346531	-0.125667	0.450603
	H3096	H	0.336927	-0.282935	0.463480
	H3097	H	0.322941	-0.282903	0.482640
	H3098	H	0.339613	-0.216482	0.554474
	H3099	H	0.324730	-0.216520	0.540831
	H3100	H	0.300389	-0.375228	0.496020
	H3101	H	0.301677	-0.125923	0.536871
	H3102	H	0.245108	-0.125311	0.589128
	H3103	H	0.359450	-0.375408	0.452445
	H3104	H	0.277137	-0.282862	0.492157
	H3105	H	0.262197	-0.282702	0.478568
	H3106	H	0.266787	-0.217270	0.573327
	H3107	H	0.279685	-0.216902	0.552193
	H3108	H	0.262318	0.033272	0.478217
	H3109	H	0.277256	0.033432	0.491843
	H3110	H	0.279899	-0.533086	0.552352
	H3111	H	0.266998	-0.533252	0.573483
	H3112	H	0.324657	-0.532758	0.540969
	H3113	H	0.339541	-0.532452	0.554669
	H3114	H	0.322865	0.032845	0.482333
	H3115	H	0.336862	0.032309	0.463125
	Al3116	Al	0.300958	0.000015	0.516553
	Al3117	Al	0.300981	0.250073	0.516490
	Al3118	Al	0.238417	0.249711	0.454038
	Al3119	Al	0.238394	-0.000020	0.454028
	O3120	O	0.311134	0.040565	0.528673
	O3121	O	0.300583	0.124864	0.506838
	O3122	O	0.301345	0.375134	0.526256
	O3123	O	0.353205	0.040394	0.566896
	O3124	O	0.291774	0.040999	0.533040
	O3125	O	0.255070	0.040862	0.592712
	O3126	O	0.291830	0.209095	0.533060
	O3127	O	0.290737	0.290780	0.504441
	O3128	O	0.248623	0.290763	0.466180
	O3129	O	0.311168	0.208708	0.528589
	O3130	O	0.310216	0.290895	0.500193
	O3131	O	0.349964	0.291101	0.446317
	O3132	O	0.254941	0.209083	0.592553
	O3133	O	0.290731	0.458881	0.504412
	O3134	O	0.248713	0.459001	0.466098
	O3135	O	0.349920	0.458746	0.446197
	O3136	O	0.310178	0.458756	0.500201
	O3137	O	0.353190	0.208484	0.566961
	O3138	O	0.245452	0.374966	0.599783
	O3139	O	0.359807	0.124929	0.441747
	C3140	C	0.336393	0.213733	0.551571
	C3141	C	0.340652	0.124550	0.555470
	C3142	C	0.336335	0.035451	0.551648
	C3143	C	0.327953	0.035578	0.543992
	C3144	C	0.323702	0.124615	0.540069
	C3145	C	0.327995	0.213734	0.543923
	C3146	C	0.314705	0.124520	0.531800
	C3147	C	0.349672	0.124348	0.563728
	C3148	C	0.288663	0.125406	0.537934
	C3149	C	0.280764	0.125328	0.550747
	C3150	C	0.277021	0.214390	0.556814
	C3151	C	0.269714	0.214330	0.568717
	C3152	C	0.265991	0.125206	0.574833
	C3153	C	0.269753	0.036278	0.568764
	C3154	C	0.277036	0.036270	0.556842
	C3155	C	0.258113	0.125091	0.587659
	C3156	C	0.287188	0.374707	0.501281
	C3157	C	0.278201	0.374622	0.492929
	C3158	C	0.273975	0.463641	0.488889
	C3159	C	0.265588	0.463643	0.481229
	C3160	C	0.261258	0.374382	0.477508
	C3161	C	0.265488	0.285376	0.481531
	C3162	C	0.273887	0.285373	0.489173
	C3163	C	0.252227	0.374722	0.469244
	C3164	C	0.313496	0.375044	0.495617
	C3165	C	0.321889	0.374997	0.483764
	C3166	C	0.325922	0.286324	0.478230
	C3167	C	0.333825	0.286399	0.467472
	C3168	C	0.337891	0.375111	0.462005
	C3169	C	0.333848	0.463877	0.467542
	C3170	C	0.325941	0.463703	0.478284
	C3171	C	0.346512	0.374868	0.450616
	H3172	H	0.336885	0.217681	0.463313
	H3173	H	0.322863	0.217471	0.482385
	H3174	H	0.339695	0.282436	0.554440
	H3175	H	0.324761	0.282537	0.540878
	H3176	H	0.300228	0.124787	0.496170
	H3177	H	0.301726	0.374728	0.536884
	H3178	H	0.244827	0.374546	0.589216
	H3179	H	0.359528	0.125206	0.452539
	H3180	H	0.277103	0.216253	0.492285
	H3181	H	0.262186	0.216599	0.478684
	H3182	H	0.266881	0.283288	0.573284
	H3183	H	0.279826	0.283338	0.552179
	H3184	H	0.262365	0.532670	0.478107
	H3185	H	0.277267	0.532829	0.491833
	H3186	H	0.279836	-0.033025	0.552203
	H3187	H	0.266960	-0.032962	0.573397
	H3188	H	0.324689	-0.033185	0.540997
	H3189	H	0.339586	-0.033700	0.554615
	H3190	H	0.322891	0.532543	0.482553
	H3191	H	0.336927	0.532894	0.463416
	Al3192	Al	0.308471	-0.500324	0.672002
	Al3193	Al	0.308519	-0.250001	0.671861
	Al3194	Al	0.246011	-0.249977	0.609411
	Al3195	Al	0.246023	-0.499905	0.609411
	O3196	O	0.318767	-0.458596	0.683896
	O3197	O	0.308019	-0.375145	0.662274
	O3198	O	0.309044	-0.125319	0.681587
	O3199	O	0.360673	-0.459381	0.722583
	O3200	O	0.299472	-0.458959	0.688733
	O3201	O	0.262947	-0.458552	0.748733
	O3202	O	0.299541	-0.291165	0.688763
	O3203	O	0.298221	-0.208848	0.659975
	O3204	O	0.256336	-0.209097	0.621276
	O3205	O	0.318807	-0.290723	0.683785
	O3206	O	0.317479	-0.209184	0.655100
	O3207	O	0.354305	-0.208675	0.595506
	O3208	O	0.262996	-0.290598	0.748826
	O3209	O	0.298242	-0.040791	0.659961
	O3210	O	0.256259	-0.040962	0.621499
	O3211	O	0.354289	-0.040910	0.595630
	O3212	O	0.317527	-0.041254	0.655147
	O3213	O	0.360707	-0.291391	0.722491
	O3214	O	0.253495	-0.125159	0.755952
	O3215	O	0.363748	-0.374964	0.588707
	C3216	C	0.343914	-0.286191	0.707081
	C3217	C	0.348183	-0.375118	0.711003
	C3218	C	0.343886	-0.463936	0.707106
	C3219	C	0.335536	-0.463919	0.699387
	C3220	C	0.331285	-0.375055	0.695412
	C3221	C	0.335560	-0.286154	0.699337
	C3222	C	0.322331	-0.374751	0.686999
	C3223	C	0.357158	-0.375300	0.719373
	C3224	C	0.296388	-0.374801	0.693683
	C3225	C	0.288595	-0.374687	0.706659
	C3226	C	0.284884	-0.285782	0.712828
	C3227	C	0.277640	-0.285705	0.724807
	C3228	C	0.273880	-0.374704	0.730874
	C3229	C	0.277577	-0.463592	0.724682
	C3230	C	0.284807	-0.463643	0.712711
	C3231	C	0.266092	-0.374425	0.743826
	C3232	C	0.294681	-0.125013	0.656828
	C3233	C	0.285712	-0.125144	0.648422
	C3234	C	0.281385	-0.036023	0.644657
	C3235	C	0.273038	-0.035934	0.636921
	C3236	C	0.268820	-0.125051	0.632896
	C3237	C	0.273142	-0.214128	0.636690
	C3238	C	0.281489	-0.214280	0.644407
	C3239	C	0.259821	-0.124963	0.624563
	C3240	C	0.320610	-0.124953	0.650143
	C3241	C	0.328470	-0.125210	0.637355
	C3242	C	0.332216	-0.214048	0.631217
	C3243	C	0.339515	-0.213877	0.619351
	C3244	C	0.343294	-0.125000	0.613317
	C3245	C	0.339565	-0.035938	0.619494
	C3246	C	0.332260	-0.036104	0.631348
	C3247	C	0.351154	-0.124794	0.600499
	H3248	H	0.342322	-0.282986	0.614617
	H3249	H	0.329387	-0.283254	0.635785
	H3250	H	0.347174	-0.217536	0.710111
	H3251	H	0.332326	-0.217557	0.696303
	H3252	H	0.307532	-0.375620	0.651628
	H3253	H	0.309547	-0.125724	0.692272
	H3254	H	0.253132	-0.124858	0.745270
	H3255	H	0.364224	-0.374951	0.599369
	H3256	H	0.284754	-0.283352	0.647408
	H3257	H	0.269907	-0.282990	0.633598
	H3258	H	0.274892	-0.216592	0.729515
	H3259	H	0.287699	-0.216898	0.708151
	H3260	H	0.269697	0.033006	0.634078
	H3261	H	0.284557	0.032679	0.647918
	H3262	H	0.287539	-0.532756	0.707979
	H3263	H	0.274754	-0.532562	0.729284
	H3264	H	0.332279	-0.532570	0.696385
	H3265	H	0.347109	-0.532710	0.710170
	H3266	H	0.329450	0.032893	0.636009
	H3267	H	0.342396	0.032915	0.614906
	Al3268	Al	0.308533	-0.000442	0.671930
	Al3269	Al	0.308490	0.249923	0.671921
	Al3270	Al	0.246046	0.249864	0.609357
	Al3271	Al	0.246024	-0.000221	0.609440
	O3272	O	0.318833	0.041277	0.683732
	O3273	O	0.308015	0.125063	0.662232
	O3274	O	0.308969	0.374833	0.681645
	O3275	O	0.360595	0.040747	0.722680
	O3276	O	0.299528	0.040778	0.688713
	O3277	O	0.262950	0.040616	0.748673
	O3278	O	0.299496	0.208742	0.688717
	O3279	O	0.298154	0.290614	0.660084
	O3280	O	0.256380	0.290677	0.621162
	O3281	O	0.318795	0.209055	0.683832
	O3282	O	0.317449	0.291075	0.655128
	O3283	O	0.354203	0.290912	0.595565
	O3284	O	0.263013	0.208586	0.748792
	O3285	O	0.298152	0.458849	0.660115
	O3286	O	0.256307	0.458555	0.621280
	O3287	O	0.354259	0.458623	0.595630
	O3288	O	0.317476	0.458804	0.655196
	O3289	O	0.360656	0.208814	0.722532
	O3290	O	0.253578	0.374824	0.755947
	O3291	O	0.363811	0.125009	0.588749
	C3292	C	0.343911	0.213688	0.707087
	C3293	C	0.348130	0.124681	0.711062
	C3294	C	0.343848	0.035838	0.707139
	C3295	C	0.335520	0.036088	0.699373
	C3296	C	0.331275	0.125061	0.695429
	C3297	C	0.335572	0.213903	0.699318
	C3298	C	0.322351	0.125123	0.686978
	C3299	C	0.357099	0.124850	0.719444
	C3300	C	0.296433	0.124673	0.693631
	C3301	C	0.288627	0.124659	0.706634
	C3302	C	0.284924	0.213830	0.712799
	C3303	C	0.277684	0.213585	0.724774
	C3304	C	0.273916	0.124547	0.730862
	C3305	C	0.277597	0.035450	0.724654
	C3306	C	0.284838	0.035542	0.712671
	C3307	C	0.266102	0.124472	0.743807
	C3308	C	0.294629	0.374895	0.656888
	C3309	C	0.285675	0.374923	0.648516
	C3310	C	0.281390	0.463945	0.644603
	C3311	C	0.273053	0.464173	0.636833
	C3312	C	0.268843	0.374952	0.632809
	C3313	C	0.273135	0.285863	0.636707
	C3314	C	0.281470	0.285750	0.644489
	C3315	C	0.259891	0.374818	0.624382
	C3316	C	0.320580	0.374959	0.650204
	C3317	C	0.328449	0.374923	0.637401
	C3318	C	0.332225	0.285973	0.631353
	C3319	C	0.339518	0.285873	0.619443
	C3320	C	0.343244	0.374793	0.613335
	C3321	C	0.339496	0.463820	0.619426
	C3322	C	0.332196	0.463879	0.631333
	C3323	C	0.351104	0.374707	0.600519
	H3324	H	0.342318	0.216687	0.614836
	H3325	H	0.329396	0.217207	0.635976
	H3326	H	0.347177	0.282456	0.710065
	H3327	H	0.332369	0.282851	0.696180
	H3328	H	0.307352	0.124700	0.651613
	H3329	H	0.309394	0.373920	0.692303
	H3330	H	0.253124	0.375313	0.745251
	H3331	H	0.364299	0.125366	0.599466
	H3332	H	0.284746	0.217098	0.647482
	H3333	H	0.269949	0.216906	0.633495
	H3334	H	0.274926	0.282388	0.729515
	H3335	H	0.287682	0.282868	0.708107
	H3336	H	0.269852	0.533261	0.633721
	H3337	H	0.284599	0.532736	0.647728
	H3338	H	0.287571	-0.033483	0.707890
	H3339	H	0.274812	-0.033686	0.729319
	H3340	H	0.332302	-0.032512	0.696323
	H3341	H	0.347078	-0.033175	0.710232
	H3342	H	0.329371	0.532984	0.635901
	H3343	H	0.342316	0.532756	0.614767
	Al3344	Al	0.316466	-0.500269	0.828234
	Al3345	Al	0.316451	-0.250173	0.828154
	Al3346	Al	0.254007	-0.249978	0.765664
	Al3347	Al	0.254027	-0.500200	0.765589
	O3348	O	0.326721	-0.459085	0.840209
	O3349	O	0.316044	-0.375208	0.818518
	O3350	O	0.316972	-0.125217	0.837809
	O3351	O	0.368727	-0.458973	0.878779
	O3352	O	0.307493	-0.459043	0.844945
	O3353	O	0.270708	-0.458853	0.904537
	O3354	O	0.307561	-0.291178	0.845011
	O3355	O	0.306168	-0.209236	0.816235
	O3356	O	0.264311	-0.209114	0.777537
	O3357	O	0.326798	-0.291000	0.840011
	O3358	O	0.325437	-0.208943	0.811348
	O3359	O	0.361970	-0.209409	0.751341
	O3360	O	0.270724	-0.291101	0.904518
	O3361	O	0.306168	-0.041081	0.816227
	O3362	O	0.264322	-0.040836	0.777447
	O3363	O	0.361970	-0.041213	0.751406
	O3364	O	0.325468	-0.041116	0.811354
	O3365	O	0.368728	-0.290851	0.878713
	O3366	O	0.261188	-0.125412	0.911359
	O3367	O	0.371413	-0.375157	0.744200
	C3368	C	0.351926	-0.285966	0.863230
	C3369	C	0.356179	-0.374993	0.867218
	C3370	C	0.351911	-0.464105	0.863292
	C3371	C	0.343533	-0.464173	0.855565
	C3372	C	0.339292	-0.375137	0.851577
	C3373	C	0.343554	-0.285990	0.855521
	C3374	C	0.330282	-0.374978	0.843274
	C3375	C	0.365177	-0.374969	0.875591
	C3376	C	0.304387	-0.375204	0.849929
	C3377	C	0.296542	-0.374881	0.862759
	C3378	C	0.292867	-0.285880	0.868975
	C3379	C	0.285551	-0.285873	0.880817
	C3380	C	0.281735	-0.374941	0.886796
	C3381	C	0.285376	-0.463914	0.880520
	C3382	C	0.292687	-0.463917	0.868650
	C3383	C	0.273840	-0.374944	0.899597
	C3384	C	0.302649	-0.125251	0.813056
	C3385	C	0.293703	-0.125182	0.804572
	C3386	C	0.289426	-0.035746	0.800740
	C3387	C	0.281084	-0.035724	0.792979
	C3388	C	0.276826	-0.125123	0.789015
	C3389	C	0.281110	-0.214487	0.792825
	C3390	C	0.289453	-0.214466	0.800580
	C3391	C	0.267860	-0.124735	0.780626
	C3392	C	0.328551	-0.125045	0.806402
	C3393	C	0.336386	-0.125292	0.793478
	C3394	C	0.340097	-0.214277	0.787358
	C3395	C	0.347348	-0.214221	0.775398
	C3396	C	0.351087	-0.125253	0.769275
	C3397	C	0.347362	-0.036153	0.775381
	C3398	C	0.340126	-0.036262	0.787355
	C3399	C	0.358894	-0.125501	0.756383
	H3400	H	0.350171	-0.283149	0.770764
	H3401	H	0.337301	-0.283352	0.792015
	H3402	H	0.355159	-0.217029	0.866258
	H3403	H	0.340301	-0.216773	0.852515
	H3404	H	0.315740	-0.375109	0.807793
	H3405	H	0.317557	-0.125049	0.848447
	H3406	H	0.260749	-0.125396	0.900717
	H3407	H	0.371903	-0.375222	0.754888
	H3408	H	0.292745	-0.283380	0.803527
	H3409	H	0.277900	-0.283512	0.789746
	H3410	H	0.282786	-0.216857	0.885520
	H3411	H	0.295744	-0.216840	0.864461
	H3412	H	0.277822	0.033345	0.789997
	H3413	H	0.292701	0.033391	0.803781
	H3414	H	0.295412	-0.532938	0.863850
	H3415	H	0.282444	-0.533015	0.884943
	H3416	H	0.340276	-0.532828	0.852619
	H3417	H	0.355150	-0.533022	0.866351
	H3418	H	0.337333	0.032445	0.792056
	H3419	H	0.350144	0.032854	0.770749
	Al3420	Al	0.316467	-0.000259	0.828178
	Al3421	Al	0.316519	0.249768	0.828117
	Al3422	Al	0.254089	0.249921	0.765568
	Al3423	Al	0.254040	-0.000016	0.765543
	O3424	O	0.326773	0.040543	0.840078
	O3425	O	0.316038	0.124610	0.818472
	O3426	O	0.316964	0.374797	0.837904
	O3427	O	0.368650	0.040359	0.878912
	O3428	O	0.307504	0.041224	0.844853
	O3429	O	0.270756	0.040778	0.904542
	O3430	O	0.307509	0.209167	0.844922
	O3431	O	0.306219	0.290339	0.816210
	O3432	O	0.264342	0.290440	0.777527
	O3433	O	0.326796	0.208618	0.840048
	O3434	O	0.325452	0.291134	0.811341
	O3435	O	0.361928	0.290810	0.751290
	O3436	O	0.270759	0.208769	0.904514
	O3437	O	0.306199	0.458331	0.816333
	O3438	O	0.264336	0.458633	0.777509
	O3439	O	0.361987	0.458829	0.751353
	O3440	O	0.325479	0.459010	0.811386
	O3441	O	0.368738	0.208567	0.878784
	O3442	O	0.261229	0.374900	0.911392
	O3443	O	0.371378	0.125001	0.744281
	C3444	C	0.351886	0.213809	0.863379
	C3445	C	0.356162	0.124475	0.867326
	C3446	C	0.351906	0.035182	0.863389
	C3447	C	0.343566	0.035223	0.855617
	C3448	C	0.339297	0.124436	0.851644
	C3449	C	0.343536	0.213750	0.855619
	C3450	C	0.330309	0.124459	0.843261
	C3451	C	0.365160	0.124492	0.875679
	C3452	C	0.304396	0.125188	0.849815
	C3453	C	0.296512	0.124844	0.862626
	C3454	C	0.292829	0.214001	0.868824
	C3455	C	0.285539	0.213742	0.880741
	C3456	C	0.281739	0.124608	0.886740
	C3457	C	0.285425	0.035392	0.880518
	C3458	C	0.292707	0.035610	0.868604
	C3459	C	0.273868	0.124575	0.899606
	C3460	C	0.302684	0.374303	0.813098
	C3461	C	0.293719	0.374553	0.804663
	C3462	C	0.289447	0.463683	0.800782
	C3463	C	0.281111	0.463829	0.793015
	C3464	C	0.276854	0.374630	0.789048
	C3465	C	0.281102	0.285494	0.792974
	C3466	C	0.289439	0.285448	0.800733
	C3467	C	0.267891	0.374921	0.780626
	C3468	C	0.328577	0.375099	0.806405
	C3469	C	0.336366	0.375043	0.793491
	C3470	C	0.340084	0.285843	0.787364
	C3471	C	0.347330	0.285808	0.775394
	C3472	C	0.351055	0.374891	0.769242
	C3473	C	0.347345	0.464111	0.775394
	C3474	C	0.340090	0.464298	0.787358
	C3475	C	0.358857	0.374895	0.756336
	H3476	H	0.350142	0.216447	0.770802
	H3477	H	0.337287	0.216558	0.792019
	H3478	H	0.355111	0.282804	0.866470
	H3479	H	0.340275	0.282805	0.852549
	H3480	H	0.315532	0.124405	0.807795
	H3481	H	0.317363	0.374717	0.848591
	H3482	H	0.260740	0.375157	0.900772
	H3483	H	0.371904	0.125532	0.754986
	H3484	H	0.292680	0.216459	0.803768
	H3485	H	0.277878	0.216857	0.789841
	H3486	H	0.282775	0.282950	0.885478
	H3487	H	0.295681	0.283346	0.864285
	H3488	H	0.277897	0.532714	0.789878
	H3489	H	0.292671	0.532594	0.803894
	H3490	H	0.295445	-0.033714	0.863873
	H3491	H	0.282572	-0.033888	0.885088
	H3492	H	0.340343	-0.033888	0.852543
	H3493	H	0.355135	-0.033701	0.866467
	H3494	H	0.337328	0.533604	0.792063
	H3495	H	0.350168	0.533075	0.770765
	Al3496	Al	0.324117	-0.500020	0.983653
	Al3497	Al	0.324057	-0.250133	0.983480
	Al3498	Al	0.261550	-0.250388	0.921067
	Al3499	Al	0.261581	-0.500262	0.921131
	O3500	O	0.334315	-0.458819	0.995709
	O3501	O	0.323735	-0.375258	0.973789
	O3502	O	0.324403	-0.125246	0.993238
	O3503	O	0.376432	-0.458915	1.033715
	O3504	O	0.314880	-0.458973	1.000007
	O3505	O	0.274996	-0.458583	1.053758
	O3506	O	0.314812	-0.291081	0.999835
	O3507	O	0.313890	-0.208952	0.971324
	O3508	O	0.271765	-0.209209	0.933132
	O3509	O	0.334309	-0.290750	0.995597
	O3510	O	0.333156	-0.208988	0.966894
	O3511	O	0.370021	-0.209222	0.907408
	O3512	O	0.275039	-0.290857	1.053850
	O3513	O	0.313826	-0.040894	0.971449
	O3514	O	0.271718	-0.041055	0.933298
	O3515	O	0.370024	-0.041336	0.907448
	O3516	O	0.333218	-0.041144	0.966981
	O3517	O	0.376505	-0.290695	1.033736
	O3518	O	0.265157	-0.124937	1.058362
	O3519	O	0.379493	-0.375035	0.900353
	C3520	C	0.359557	-0.285598	1.018580
	C3521	C	0.363864	-0.374460	1.022402
	C3522	C	0.359541	-0.463520	1.018610
	C3523	C	0.351142	-0.463488	1.010994
	C3524	C	0.346859	-0.374398	1.007120
	C3525	C	0.351155	-0.285399	1.010958
	C3526	C	0.337871	-0.374533	0.998771
	C3527	C	0.372915	-0.374786	1.030642
	C3528	C	0.311548	-0.375041	1.004512
	C3529	C	0.303105	-0.374954	1.016301
	C3530	C	0.299024	-0.286255	1.021766
	C3531	C	0.291125	-0.286134	1.032455
	C3532	C	0.287054	-0.374828	1.037965
	C3533	C	0.291142	-0.463584	1.032517
	C3534	C	0.299041	-0.463671	1.021810
	C3535	C	0.278449	-0.374764	1.049436
	C3536	C	0.310311	-0.124911	0.968266
	C3537	C	0.301278	-0.124762	0.960011
	C3538	C	0.296967	-0.035586	0.956144
	C3539	C	0.288560	-0.035883	0.948541
	C3540	C	0.284293	-0.125162	0.944636
	C3541	C	0.288629	-0.214379	0.948417
	C3542	C	0.297038	-0.214080	0.956042
	C3543	C	0.275281	-0.125302	0.936380
	C3544	C	0.336339	-0.125069	0.962037
	C3545	C	0.344232	-0.125279	0.949255
	C3546	C	0.347986	-0.214265	0.943203
	C3547	C	0.355286	-0.214483	0.931309
	C3548	C	0.359059	-0.125471	0.925245
	C3549	C	0.355327	-0.036616	0.931348
	C3550	C	0.348021	-0.036360	0.943233
	C3551	C	0.366910	-0.125417	0.912404
	H3552	H	0.358121	-0.283590	0.926736
	H3553	H	0.345166	-0.283259	0.947829
	H3554	H	0.362813	-0.216727	1.021591
	H3555	H	0.347896	-0.216509	1.007917
	H3556	H	0.323397	-0.376046	0.963110
	H3557	H	0.324785	-0.125640	1.003849
	H3558	H	0.265524	-0.125280	1.047506
	H3559	H	0.380030	-0.374595	0.911011
	H3560	H	0.300339	-0.282944	0.958986
	H3561	H	0.285411	-0.283527	0.945359
	H3562	H	0.288076	-0.217450	1.036669
	H3563	H	0.302083	-0.217431	1.017563
	H3564	H	0.285298	0.033105	0.945600
	H3565	H	0.300206	0.033845	0.959162
	H3566	H	0.302104	-0.532531	1.017642
	H3567	H	0.288113	-0.532545	1.036775
	H3568	H	0.347886	-0.532296	1.007971
	H3569	H	0.362771	-0.532260	1.021646
	H3570	H	0.345236	0.032875	0.947869
	H3571	H	0.358177	0.032483	0.926781
	Al3572	Al	0.324062	-0.000175	0.983566
	Al3573	Al	0.324099	0.249498	0.983558
	Al3574	Al	0.261649	0.249811	0.921026
	Al3575	Al	0.261572	-0.000275	0.921081
	O3576	O	0.334233	0.040671	0.995737
	O3577	O	0.323704	0.124823	0.973792
	O3578	O	0.324471	0.374881	0.993313
	O3579	O	0.376440	0.040426	1.033823
	O3580	O	0.314782	0.040962	0.999872
	O3581	O	0.275058	0.040880	1.053868
	O3582	O	0.314791	0.208936	0.999870
	O3583	O	0.313880	0.290945	0.971456
	O3584	O	0.271838	0.290606	0.933119
	O3585	O	0.334308	0.208763	0.995746
	O3586	O	0.333202	0.290794	0.966953
	O3587	O	0.369968	0.290657	0.907425
	O3588	O	0.274962	0.208622	1.053705
	O3589	O	0.313835	0.459066	0.971573
	O3590	O	0.271796	0.458770	0.933203
	O3591	O	0.370013	0.458659	0.907455
	O3592	O	0.333221	0.458681	0.967007
	O3593	O	0.376436	0.208440	1.033764
	O3594	O	0.265193	0.374814	1.058343
	O3595	O	0.379495	0.125029	0.900335
	C3596	C	0.359599	0.213095	1.018483
	C3597	C	0.363842	0.124115	1.022448
	C3598	C	0.359516	0.035148	1.018647
	C3599	C	0.351112	0.035109	1.011047
	C3600	C	0.346826	0.124094	1.007196
	C3601	C	0.351188	0.212935	1.010898
	C3602	C	0.337818	0.124593	0.998866
	C3603	C	0.372858	0.124216	1.030720
	C3604	C	0.311478	0.124998	1.004474
	C3605	C	0.303043	0.124941	1.016301
	C3606	C	0.298958	0.213720	1.021714
	C3607	C	0.291056	0.213559	1.032484
	C3608	C	0.287081	0.124667	1.038082
	C3609	C	0.291185	0.035762	1.032696
	C3610	C	0.299077	0.035999	1.021942
	C3611	C	0.278434	0.124665	1.049445
	C3612	C	0.310319	0.375152	0.968398
	C3613	C	0.301278	0.375007	0.960132
	C3614	C	0.296998	0.464367	0.956205
	C3615	C	0.288612	0.464202	0.948545
	C3616	C	0.284332	0.374842	0.944675
	C3617	C	0.288613	0.285550	0.948643
	C3618	C	0.296990	0.285682	0.956295
	C3619	C	0.275342	0.374554	0.936356
	C3620	C	0.336341	0.374732	0.962023
	C3621	C	0.344241	0.374771	0.949261
	C3622	C	0.347932	0.285860	0.943100
	C3623	C	0.355236	0.285831	0.931229
	C3624	C	0.359017	0.374751	0.925236
	C3625	C	0.355296	0.463701	0.931352
	C3626	C	0.347998	0.463789	0.943239
	C3627	C	0.366859	0.374719	0.912351
	H3628	H	0.357985	0.216887	0.926497
	H3629	H	0.345035	0.216841	0.947602
	H3630	H	0.362874	0.282121	1.021383
	H3631	H	0.347983	0.281888	1.007769
	H3632	H	0.323180	0.124160	0.963100
	H3633	H	0.324890	0.374411	1.004015
	H3634	H	0.265574	0.374855	1.047531
	H3635	H	0.379918	0.125431	0.911014
	H3636	H	0.300216	0.216795	0.959372
	H3637	H	0.285356	0.216437	0.945713
	H3638	H	0.287941	0.282561	1.036529
	H3639	H	0.301932	0.282501	1.017397
	H3640	H	0.285357	0.533371	0.945493
	H3641	H	0.300275	0.533207	0.959218
	H3642	H	0.302164	-0.032914	1.017817
	H3643	H	0.288154	-0.033189	1.036905
	H3644	H	0.347862	-0.033866	1.008053
	H3645	H	0.362762	-0.033780	1.021714
	H3646	H	0.345168	0.532862	0.947811
	H3647	H	0.358090	0.532681	0.926679
	Al3648	Al	0.449121	-0.500292	0.108409
	Al3649	Al	0.449150	-0.249998	0.108323
	Al3650	Al	0.386724	-0.249858	0.045868
	Al3651	Al	0.386663	-0.500006	0.045827
	O3652	O	0.459326	-0.459003	0.120510
	O3653	O	0.448768	-0.375118	0.098726
	O3654	O	0.449533	-0.125032	0.118096
	O3655	O	0.501391	-0.458910	0.158925
	O3656	O	0.439881	-0.458854	0.124843
	O3657	O	0.400065	-0.458873	0.178709
	O3658	O	0.439863	-0.290815	0.124723
	O3659	O	0.438938	-0.209073	0.096337
	O3660	O	0.396905	-0.209432	0.057955
	O3661	O	0.459337	-0.290764	0.120497
	O3662	O	0.458254	-0.208876	0.091748
	O3663	O	0.495025	-0.208964	0.032280
	O3664	O	0.400037	-0.291321	0.178628
	O3665	O	0.438939	-0.040779	0.096349
	O3666	O	0.396852	-0.041238	0.058004
	O3667	O	0.495047	-0.040876	0.032301
	O3668	O	0.458271	-0.040999	0.091813
	O3669	O	0.501404	-0.290922	0.158820
	O3670	O	0.390183	-0.125394	0.183220
	O3671	O	0.504581	-0.375156	0.025215
	C3672	C	0.484508	-0.286001	0.143683
	C3673	C	0.488790	-0.375375	0.147539
	C3674	C	0.484526	-0.464488	0.143592
	C3675	C	0.476129	-0.464381	0.135945
	C3676	C	0.471810	-0.375070	0.132169
	C3677	C	0.476099	-0.285878	0.136051
	C3678	C	0.462841	-0.374914	0.123728
	C3679	C	0.497836	-0.375102	0.155778
	C3680	C	0.436557	-0.374864	0.129354
	C3681	C	0.428126	-0.374692	0.141136
	C3682	C	0.424024	-0.285870	0.146606
	C3683	C	0.416135	-0.286068	0.157357
	C3684	C	0.412115	-0.374887	0.162921
	C3685	C	0.416207	-0.463784	0.157470
	C3686	C	0.424108	-0.463617	0.146737
	C3687	C	0.403471	-0.375040	0.174253
	C3688	C	0.435371	-0.124932	0.093254
	C3689	C	0.426340	-0.124861	0.085044
	C3690	C	0.422040	-0.035711	0.081194
	C3691	C	0.413636	-0.035862	0.073563
	C3692	C	0.409388	-0.125145	0.069591
	C3693	C	0.413711	-0.214232	0.073377
	C3694	C	0.422099	-0.214182	0.081069
	C3695	C	0.400407	-0.125295	0.061146
	C3696	C	0.461414	-0.125060	0.086957
	C3697	C	0.469276	-0.124997	0.074091
	C3698	C	0.473064	-0.213814	0.068076
	C3699	C	0.480374	-0.213711	0.056215
	C3700	C	0.484073	-0.124824	0.050115
	C3701	C	0.480297	-0.035944	0.056114
	C3702	C	0.472996	-0.036094	0.067990
	C3703	C	0.491927	-0.124801	0.037254
	H3704	H	0.483228	-0.282733	0.051687
	H3705	H	0.470321	-0.282960	0.072833
	H3706	H	0.487749	-0.216853	0.146703
	H3707	H	0.472815	-0.216939	0.133003
	H3708	H	0.448412	-0.375233	0.087991
	H3709	H	0.449873	-0.125674	0.128776
	H3710	H	0.390307	-0.125105	0.172434
	H3711	H	0.505090	-0.374767	0.035820
	H3712	H	0.425386	-0.283076	0.083998
	H3713	H	0.410530	-0.283011	0.070262
	H3714	H	0.412991	-0.217371	0.161410
	H3715	H	0.427029	-0.216913	0.142362
	H3716	H	0.410355	0.033165	0.070538
	H3717	H	0.425272	0.033444	0.084192
	H3718	H	0.427201	-0.532482	0.142548
	H3719	H	0.413150	-0.532553	0.161598
	H3720	H	0.472964	-0.533553	0.132837
	H3721	H	0.487809	-0.533584	0.146517
	H3722	H	0.470209	0.032927	0.072624
	H3723	H	0.483102	0.032794	0.051476
	Al3724	Al	0.449168	-0.000169	0.108447
	Al3725	Al	0.449136	0.249639	0.108408
	Al3726	Al	0.386629	0.250273	0.045845
	Al3727	Al	0.386681	0.000030	0.045856
	O3728	O	0.459307	0.041189	0.120631
	O3729	O	0.448764	0.124619	0.098711
	O3730	O	0.449492	0.374749	0.118092
	O3731	O	0.501454	0.040799	0.158867
	O3732	O	0.439845	0.040618	0.124805
	O3733	O	0.400005	0.041074	0.178634
	O3734	O	0.439865	0.208689	0.124761
	O3735	O	0.438912	0.290721	0.096222
	O3736	O	0.396840	0.290850	0.057910
	O3737	O	0.459329	0.209046	0.120599
	O3738	O	0.458241	0.290746	0.091802
	O3739	O	0.495097	0.290521	0.032383
	O3740	O	0.400032	0.208819	0.178679
	O3741	O	0.438862	0.458697	0.096377
	O3742	O	0.396802	0.458777	0.057951
	O3743	O	0.495074	0.458819	0.032395
	O3744	O	0.458227	0.458697	0.091781
	O3745	O	0.501382	0.209009	0.158876
	O3746	O	0.390149	0.374883	0.183144
	O3747	O	0.504547	0.124799	0.025202
	C3748	C	0.484539	0.213738	0.143603
	C3749	C	0.488857	0.124729	0.147421
	C3750	C	0.484535	0.035855	0.143617
	C3751	C	0.476145	0.035948	0.135973
	C3752	C	0.471887	0.125041	0.132048
	C3753	C	0.476152	0.213935	0.135956
	C3754	C	0.462872	0.125053	0.123760
	C3755	C	0.497861	0.124810	0.155731
	C3756	C	0.436548	0.124760	0.129367
	C3757	C	0.428128	0.124708	0.141164
	C3758	C	0.424112	0.213401	0.146743
	C3759	C	0.416187	0.213444	0.157490
	C3760	C	0.412084	0.124627	0.162912
	C3761	C	0.416115	0.035755	0.157358
	C3762	C	0.424049	0.035931	0.146633
	C3763	C	0.403442	0.124882	0.174272
	C3764	C	0.435328	0.374630	0.093156
	C3765	C	0.426328	0.375106	0.084832
	C3766	C	0.422005	0.464230	0.081074
	C3767	C	0.413601	0.464254	0.073447
	C3768	C	0.409353	0.375073	0.069432
	C3769	C	0.413681	0.286033	0.073159
	C3770	C	0.422076	0.286060	0.080800
	C3771	C	0.400367	0.374904	0.061108
	C3772	C	0.461365	0.374654	0.086891
	C3773	C	0.469246	0.374489	0.074058
	C3774	C	0.473051	0.285257	0.068060
	C3775	C	0.480353	0.285294	0.056212
	C3776	C	0.484080	0.374467	0.050107
	C3777	C	0.480320	0.463541	0.056190
	C3778	C	0.473017	0.463730	0.068033
	C3779	C	0.491942	0.374540	0.037273
	H3780	H	0.483170	0.216107	0.051602
	H3781	H	0.470260	0.216145	0.072754
	H3782	H	0.487764	0.282225	0.146672
	H3783	H	0.472908	0.282827	0.132994
	H3784	H	0.448278	0.124857	0.087994
	H3785	H	0.449781	0.374335	0.128744
	H3786	H	0.390418	0.374587	0.172358
	H3787	H	0.505004	0.125030	0.035923
	H3788	H	0.425347	0.217218	0.083750
	H3789	H	0.410489	0.217176	0.070017
	H3790	H	0.413149	0.282421	0.161658
	H3791	H	0.427174	0.282353	0.142559
	H3792	H	0.410316	0.533292	0.070519
	H3793	H	0.425186	0.533277	0.084230
	H3794	H	0.427064	-0.032994	0.142349
	H3795	H	0.413006	-0.033341	0.161420
	H3796	H	0.472802	-0.032377	0.133086
	H3797	H	0.487745	-0.033064	0.146646
	H3798	H	0.470219	0.532855	0.072689
	H3799	H	0.483122	0.532636	0.051570
	Al3800	Al	0.452344	-0.500577	0.255803
	Al3801	Al	0.452332	-0.249783	0.255821
	Al3802	Al	0.389880	-0.250568	0.193193
	Al3803	Al	0.389805	-0.499372	0.193148
	O3804	O	0.461731	-0.459280	0.269531
	O3805	O	0.452660	-0.375224	0.245835
	O3806	O	0.451661	-0.125122	0.265694
	O3807	O	0.505415	-0.459023	0.304149
	O3808	O	0.441148	-0.459652	0.268373
	O3809	O	0.391776	-0.458825	0.263073
	O3810	O	0.441139	-0.291478	0.268404
	O3811	O	0.442828	-0.209740	0.241800
	O3812	O	0.399269	-0.209550	0.207016
	O3813	O	0.461706	-0.291215	0.269662
	O3814	O	0.462569	-0.208678	0.241328
	O3815	O	0.502351	-0.208377	0.187227
	O3816	O	0.391815	-0.290635	0.263147
	O3817	O	0.442929	-0.041678	0.241661
	O3818	O	0.399291	-0.041458	0.206863
	O3819	O	0.502370	-0.040652	0.187237
	O3820	O	0.462572	-0.040879	0.241246
	O3821	O	0.505357	-0.290951	0.304269
	O3822	O	0.381163	-0.124903	0.264044
	O3823	O	0.511910	-0.375112	0.180634
	C3824	C	0.487941	-0.285793	0.290109
	C3825	C	0.492443	-0.375320	0.293550
	C3826	C	0.487927	-0.464851	0.290227
	C3827	C	0.479170	-0.464679	0.283644
	C3828	C	0.474679	-0.375273	0.280190
	C3829	C	0.479184	-0.285629	0.283516
	C3830	C	0.465367	-0.375227	0.272582
	C3831	C	0.501747	-0.374997	0.301205
	C3832	C	0.436943	-0.375569	0.268283
	C3833	C	0.426327	-0.375411	0.267561
	C3834	C	0.421357	-0.285445	0.266564
	C3835	C	0.411640	-0.285245	0.264700
	C3836	C	0.406615	-0.374964	0.263841
	C3837	C	0.411595	-0.464917	0.264838
	C3838	C	0.421301	-0.465111	0.266707
	C3839	C	0.395979	-0.374783	0.263240
	C3840	C	0.439237	-0.125513	0.238739
	C3841	C	0.429920	-0.124888	0.231111
	C3842	C	0.425443	-0.035400	0.227660
	C3843	C	0.416672	-0.035342	0.221038
	C3844	C	0.412181	-0.124946	0.217676
	C3845	C	0.416658	-0.214230	0.221086
	C3846	C	0.425411	-0.214233	0.227715
	C3847	C	0.402913	-0.125256	0.209957
	C3848	C	0.465998	-0.124987	0.236940
	C3849	C	0.474589	-0.124704	0.225452
	C3850	C	0.478675	-0.213649	0.219968
	C3851	C	0.486564	-0.213394	0.209198
	C3852	C	0.490607	-0.124289	0.203653
	C3853	C	0.486529	-0.035485	0.209169
	C3854	C	0.478642	-0.035650	0.219940
	C3855	C	0.499041	-0.124388	0.191808
	H3856	H	0.489649	-0.282530	0.205004
	H3857	H	0.475637	-0.282841	0.224176
	H3858	H	0.491316	-0.216137	0.292682
	H3859	H	0.475790	-0.216073	0.280962
	H3860	H	0.452631	-0.375320	0.234992
	H3861	H	0.450506	-0.124816	0.276417
	H3862	H	0.382717	-0.124830	0.253451
	H3863	H	0.512238	-0.375003	0.191337
	H3864	H	0.428748	-0.283883	0.230282
	H3865	H	0.413262	-0.283779	0.218492
	H3866	H	0.407889	-0.215378	0.263928
	H3867	H	0.425137	-0.215524	0.267260
	H3868	H	0.413321	0.034225	0.218361
	H3869	H	0.428835	0.034340	0.230177
	H3870	H	0.425039	-0.534978	0.267518
	H3871	H	0.407814	-0.534824	0.264164
	H3872	H	0.475732	-0.534127	0.281179
	H3873	H	0.491275	-0.534734	0.292842
	H3874	H	0.475591	0.033255	0.224181
	H3875	H	0.489573	0.033504	0.204993
	Al3876	Al	0.452325	-0.000771	0.255786
	Al3877	Al	0.452311	0.250614	0.255862
	Al3878	Al	0.389838	0.249567	0.193159
	Al3879	Al	0.389830	-0.000169	0.193192
	O3880	O	0.461718	0.040777	0.269579
	O3881	O	0.452688	0.124854	0.245880
	O3882	O	0.451625	0.375013	0.265784
	O3883	O	0.505375	0.040981	0.304208
	O3884	O	0.441075	0.040349	0.268412
	O3885	O	0.391742	0.041232	0.263079
	O3886	O	0.441121	0.208618	0.268456
	O3887	O	0.442759	0.290591	0.241833
	O3888	O	0.399238	0.291158	0.206920
	O3889	O	0.461664	0.208984	0.269687
	O3890	O	0.462560	0.290708	0.241360
	O3891	O	0.502333	0.290480	0.187347
	O3892	O	0.391773	0.209464	0.263090
	O3893	O	0.442833	0.458923	0.241709
	O3894	O	0.399201	0.459176	0.206899
	O3895	O	0.502329	0.458511	0.187285
	O3896	O	0.462490	0.458333	0.241234
	O3897	O	0.505400	0.209283	0.304221
	O3898	O	0.381244	0.375057	0.264062
	O3899	O	0.512034	0.124620	0.180581
	C3900	C	0.487956	0.214569	0.290055
	C3901	C	0.492440	0.125294	0.293534
	C3902	C	0.487915	0.035777	0.290258
	C3903	C	0.479147	0.035621	0.283688
	C3904	C	0.474662	0.124944	0.280193
	C3905	C	0.479189	0.214512	0.283475
	C3906	C	0.465357	0.124889	0.272589
	C3907	C	0.501750	0.125117	0.301199
	C3908	C	0.436904	0.124617	0.268256
	C3909	C	0.426296	0.124542	0.267559
	C3910	C	0.421324	0.214563	0.266599
	C3911	C	0.411577	0.214935	0.264773
	C3912	C	0.406562	0.125157	0.263850
	C3913	C	0.411532	0.035048	0.264833
	C3914	C	0.421269	0.034707	0.266669
	C3915	C	0.395944	0.125264	0.263234
	C3916	C	0.439166	0.374802	0.238739
	C3917	C	0.429900	0.374768	0.230995
	C3918	C	0.425431	0.464511	0.227540
	C3919	C	0.416685	0.464552	0.220890
	C3920	C	0.412174	0.375080	0.217519
	C3921	C	0.416651	0.285298	0.220946
	C3922	C	0.425389	0.285269	0.227593
	C3923	C	0.402885	0.375117	0.209826
	C3924	C	0.465933	0.374443	0.236932
	C3925	C	0.474573	0.374725	0.225493
	C3926	C	0.478644	0.285975	0.220031
	C3927	C	0.486561	0.285971	0.209263
	C3928	C	0.490589	0.374955	0.203731
	C3929	C	0.486520	0.463791	0.209220
	C3930	C	0.478600	0.463655	0.219990
	C3931	C	0.499024	0.374664	0.191862
	H3932	H	0.489600	0.216910	0.205054
	H3933	H	0.475576	0.216747	0.224131
	H3934	H	0.491326	0.284303	0.292573
	H3935	H	0.475811	0.283886	0.280875
	H3936	H	0.452869	0.125098	0.235033
	H3937	H	0.450393	0.374967	0.276417
	H3938	H	0.382874	0.375459	0.253471
	H3939	H	0.512261	0.124739	0.191281
	H3940	H	0.428738	0.215496	0.230275
	H3941	H	0.413272	0.215712	0.218352
	H3942	H	0.407855	0.285442	0.264086
	H3943	H	0.425091	0.284619	0.267361
	H3944	H	0.413290	0.534067	0.218249
	H3945	H	0.428788	0.534087	0.230161
	H3946	H	0.424999	-0.035411	0.267433
	H3947	H	0.407741	-0.034809	0.264188
	H3948	H	0.475756	-0.034073	0.281250
	H3949	H	0.491280	-0.033626	0.292945
	H3950	H	0.475546	0.532650	0.224160
	H3951	H	0.489529	0.532894	0.204998
	Al3952	Al	0.442550	-0.499773	0.336513
	Al3953	Al	0.442556	-0.249674	0.336501
	Al3954	Al	0.380064	-0.250132	0.274011
	Al3955	Al	0.380084	-0.500067	0.274039
	O3956	O	0.451428	-0.458793	0.351552
	O3957	O	0.443720	-0.374781	0.326514
	O3958	O	0.441398	-0.124403	0.346439
	O3959	O	0.496214	-0.459421	0.383773
	O3960	O	0.430858	-0.459043	0.347468
	O3961	O	0.381704	-0.459477	0.339821
	O3962	O	0.430879	-0.290932	0.347550
	O3963	O	0.433713	-0.208968	0.321381
	O3964	O	0.388980	-0.208511	0.289037
	O3965	O	0.451530	-0.290742	0.351373
	O3966	O	0.454264	-0.208536	0.325526
	O3967	O	0.503611	-0.209754	0.330802
	O3968	O	0.381688	-0.291307	0.340029
	O3969	O	0.433741	-0.041275	0.321267
	O3970	O	0.388990	-0.040652	0.289107
	O3971	O	0.503620	-0.041129	0.330749
	O3972	O	0.454329	-0.040410	0.325591
	O3973	O	0.496210	-0.291513	0.383800
	O3974	O	0.371091	-0.125253	0.340918
	O3975	O	0.514190	-0.375130	0.328196
	C3976	C	0.478380	-0.285589	0.370507
	C3977	C	0.483009	-0.375261	0.373511
	C3978	C	0.478392	-0.465074	0.370338
	C3979	C	0.469369	-0.464850	0.364548
	C3980	C	0.464726	-0.375140	0.361511
	C3981	C	0.469362	-0.285498	0.364671
	C3982	C	0.455186	-0.374881	0.354364
	C3983	C	0.492513	-0.375445	0.380817
	C3984	C	0.426675	-0.374913	0.347140
	C3985	C	0.416101	-0.374847	0.345948
	C3986	C	0.411118	-0.285094	0.344744
	C3987	C	0.401433	-0.285287	0.342479
	C3988	C	0.396471	-0.375158	0.341346
	C3989	C	0.401460	-0.464814	0.342456
	C3990	C	0.411138	-0.464697	0.344739
	C3991	C	0.385888	-0.375341	0.340250
	C3992	C	0.430018	-0.125222	0.318367
	C3993	C	0.420568	-0.125502	0.310945
	C3994	C	0.415905	-0.035840	0.307939
	C3995	C	0.406912	-0.035635	0.302107
	C3996	C	0.402231	-0.124953	0.299048
	C3997	C	0.406886	-0.214687	0.302050
	C3998	C	0.415877	-0.214919	0.307888
	C3999	C	0.392716	-0.124703	0.291908
	C4000	C	0.458494	-0.124608	0.325697
	C4001	C	0.469115	-0.124993	0.326332
	C4002	C	0.474099	-0.214815	0.327145
	C4003	C	0.483826	-0.215114	0.328963
	C4004	C	0.488817	-0.125393	0.330012
	C4005	C	0.483839	-0.035374	0.329078
	C4006	C	0.474106	-0.035117	0.327240
	C4007	C	0.499430	-0.125431	0.330630
	H4008	H	0.487539	-0.285413	0.329674
	H4009	H	0.470319	-0.284781	0.326494
	H4010	H	0.481832	-0.215498	0.372832
	H4011	H	0.465922	-0.215061	0.362561
	H4012	H	0.445313	-0.374504	0.315934
	H4013	H	0.439881	-0.124019	0.357038
	H4014	H	0.372699	-0.125128	0.330300
	H4015	H	0.512857	-0.375180	0.338889
	H4016	H	0.419336	-0.285015	0.310090
	H4017	H	0.403415	-0.284578	0.299795
	H4018	H	0.397692	-0.215410	0.341562
	H4019	H	0.414848	-0.215006	0.345623
	H4020	H	0.403457	0.034539	0.299889
	H4021	H	0.419393	0.034293	0.310157
	H4022	H	0.414878	-0.534796	0.345644
	H4023	H	0.397741	-0.534873	0.341547
	H4024	H	0.465888	-0.534810	0.362339
	H4025	H	0.481834	-0.535479	0.372506
	H4026	H	0.470353	0.034951	0.326647
	H4027	H	0.487614	0.034519	0.329863
	Al4028	Al	0.442575	0.000160	0.336378
	Al4029	Al	0.442576	0.250038	0.336463
	Al4030	Al	0.380068	0.250056	0.274012
	Al4031	Al	0.380065	0.000302	0.274087
	O4032	O	0.451448	0.041603	0.351448
	O4033	O	0.443720	0.125307	0.326400
	O4034	O	0.441332	0.374929	0.346471
	O4035	O	0.496167	0.040470	0.383839
	O4036	O	0.430825	0.040595	0.347192
	O4037	O	0.381693	0.040299	0.340026
	O4038	O	0.430870	0.208867	0.347473
	O4039	O	0.433692	0.291155	0.321359
	O4040	O	0.389039	0.291129	0.288984
	O4041	O	0.451502	0.209235	0.351430
	O4042	O	0.454231	0.291620	0.325448
	O4043	O	0.503621	0.290833	0.330844
	O4044	O	0.381709	0.208459	0.340012
	O4045	O	0.433666	0.458884	0.321478
	O4046	O	0.389018	0.458929	0.289036
	O4047	O	0.503593	0.458923	0.330722
	O4048	O	0.454281	0.459712	0.325632
	O4049	O	0.496174	0.208365	0.383862
	O4050	O	0.371108	0.374395	0.340829
	O4051	O	0.514118	0.124781	0.328179
	C4052	C	0.478370	0.214431	0.370499
	C4053	C	0.483036	0.124679	0.373477
	C4054	C	0.478371	0.035037	0.370403
	C4055	C	0.469373	0.035127	0.364542
	C4056	C	0.464723	0.124907	0.361483
	C4057	C	0.469379	0.214488	0.364636
	C4058	C	0.455204	0.125260	0.354315
	C4059	C	0.492468	0.124513	0.380935
	C4060	C	0.426654	0.124923	0.346986
	C4061	C	0.416100	0.124879	0.345839
	C4062	C	0.411100	0.214700	0.344720
	C4063	C	0.401434	0.214424	0.342501
	C4064	C	0.396483	0.124240	0.341365
	C4065	C	0.401472	0.034401	0.342526
	C4066	C	0.411139	0.034769	0.344759
	C4067	C	0.385908	0.124362	0.340310
	C4068	C	0.429996	0.374925	0.318457
	C4069	C	0.420552	0.374676	0.311042
	C4070	C	0.415882	0.464318	0.308067
	C4071	C	0.406886	0.464456	0.302208
	C4072	C	0.402265	0.374922	0.299063
	C4073	C	0.406920	0.285146	0.302061
	C4074	C	0.415918	0.285118	0.307913
	C4075	C	0.392753	0.375132	0.291862
	C4076	C	0.458458	0.375468	0.325694
	C4077	C	0.469065	0.375191	0.326344
	C4078	C	0.474034	0.285102	0.327230
	C4079	C	0.483776	0.284909	0.329041
	C4080	C	0.488808	0.374699	0.329961
	C4081	C	0.483828	0.464576	0.329060
	C4082	C	0.474094	0.464816	0.327265
	C4083	C	0.499411	0.374744	0.330620
	H4084	H	0.487527	0.214907	0.329845
	H4085	H	0.470249	0.215245	0.326641
	H4086	H	0.481840	0.284814	0.372727
	H4087	H	0.465930	0.284683	0.362360
	H4088	H	0.445245	0.125385	0.315769
	H4089	H	0.439539	0.375216	0.357061
	H4090	H	0.372511	0.374492	0.330199
	H4091	H	0.512897	0.124437	0.338908
	H4092	H	0.419390	0.214888	0.310090
	H4093	H	0.403485	0.215114	0.299759
	H4094	H	0.397668	0.284168	0.341650
	H4095	H	0.414831	0.284913	0.345629
	H4096	H	0.403414	0.534572	0.300028
	H4097	H	0.419305	0.534425	0.310386
	H4098	H	0.414879	-0.035041	0.345683
	H4099	H	0.397731	-0.035898	0.341635
	H4100	H	0.465962	-0.034896	0.362248
	H4101	H	0.481888	-0.035066	0.372572
	H4102	H	0.470344	0.534944	0.326698
	H4103	H	0.487575	0.534664	0.329832
	Al4104	Al	0.432433	-0.500290	0.413443
	Al4105	Al	0.432438	-0.249961	0.413433
	Al4106	Al	0.369960	-0.250250	0.350965
	Al4107	Al	0.369981	-0.500098	0.350728
	O4108	O	0.441281	-0.459651	0.428616
	O4109	O	0.433651	-0.375251	0.403460
	O4110	O	0.431309	-0.125128	0.423398
	O4111	O	0.486048	-0.459175	0.460814
	O4112	O	0.420735	-0.459169	0.424362
	O4113	O	0.371412	-0.459470	0.419108
	O4114	O	0.420735	-0.291019	0.424376
	O4115	O	0.423551	-0.209008	0.398453
	O4116	O	0.378848	-0.209144	0.366043
	O4117	O	0.441302	-0.291702	0.428493
	O4118	O	0.444174	-0.209326	0.402565
	O4119	O	0.493377	-0.209249	0.409808
	O4120	O	0.371392	-0.291075	0.419069
	O4121	O	0.423594	-0.041034	0.398324
	O4122	O	0.378812	-0.041157	0.366087
	O4123	O	0.493352	-0.041229	0.409922
	O4124	O	0.444135	-0.041458	0.402348
	O4125	O	0.486036	-0.291496	0.460900
	O4126	O	0.360871	-0.125224	0.421755
	O4127	O	0.503908	-0.375202	0.408884
	C4128	C	0.468099	-0.285634	0.447786
	C4129	C	0.472794	-0.375092	0.450760
	C4130	C	0.468158	-0.464619	0.447645
	C4131	C	0.459147	-0.464717	0.441779
	C4132	C	0.454468	-0.375317	0.438791
	C4133	C	0.459087	-0.285651	0.441924
	C4134	C	0.444983	-0.375600	0.431476
	C4135	C	0.482302	-0.375275	0.458009
	C4136	C	0.416542	-0.375097	0.424213
	C4137	C	0.405914	-0.375244	0.423586
	C4138	C	0.400907	-0.285374	0.422769
	C4139	C	0.391191	-0.285301	0.420967
	C4140	C	0.386202	-0.375208	0.419913
	C4141	C	0.391203	-0.465163	0.420723
	C4142	C	0.400915	-0.465223	0.422549
	C4143	C	0.375592	-0.375243	0.419227
	C4144	C	0.419857	-0.124938	0.395515
	C4145	C	0.410344	-0.124939	0.388268
	C4146	C	0.405701	-0.035411	0.385202
	C4147	C	0.396691	-0.035389	0.379360
	C4148	C	0.392028	-0.125090	0.376371
	C4149	C	0.396698	-0.214611	0.379398
	C4150	C	0.405706	-0.214543	0.385227
	C4151	C	0.382554	-0.125159	0.368988
	C4152	C	0.448349	-0.125180	0.402805
	C4153	C	0.458940	-0.125015	0.403881
	C4154	C	0.463938	-0.214798	0.404989
	C4155	C	0.473615	-0.214958	0.407268
	C4156	C	0.478587	-0.125184	0.408447
	C4157	C	0.473613	-0.035266	0.407236
	C4158	C	0.463927	-0.035137	0.404979
	C4159	C	0.489175	-0.125249	0.409512
	H4160	H	0.477318	-0.285048	0.408208
	H4161	H	0.460172	-0.284848	0.404176
	H4162	H	0.471509	-0.215314	0.450141
	H4163	H	0.455574	-0.215695	0.439848
	H4164	H	0.435319	-0.375551	0.392919
	H4165	H	0.429805	-0.124225	0.434041
	H4166	H	0.362143	-0.124828	0.411086
	H4167	H	0.502244	-0.375451	0.419435
	H4168	H	0.409154	-0.284745	0.387459
	H4169	H	0.393241	-0.284622	0.377165
	H4170	H	0.387405	-0.215206	0.420299
	H4171	H	0.404695	-0.215571	0.423496
	H4172	H	0.393276	0.034870	0.377110
	H4173	H	0.409171	0.034739	0.387368
	H4174	H	0.404696	-0.535096	0.423153
	H4175	H	0.387450	-0.534999	0.419837
	H4176	H	0.455698	-0.534922	0.439575
	H4177	H	0.471586	-0.534854	0.449892
	H4178	H	0.460222	0.034995	0.404130
	H4179	H	0.477349	0.034790	0.408186
	Al4180	Al	0.432438	0.000209	0.413367
	Al4181	Al	0.432448	0.250052	0.413403
	Al4182	Al	0.370010	0.249641	0.350867
	Al4183	Al	0.369963	-0.000305	0.350933
	O4184	O	0.441300	0.041463	0.428545
	O4185	O	0.433608	0.125210	0.403368
	O4186	O	0.431278	0.374627	0.423429
	O4187	O	0.486112	0.041714	0.460804
	O4188	O	0.420699	0.041046	0.424225
	O4189	O	0.371373	0.040922	0.419106
	O4190	O	0.420760	0.209123	0.424298
	O4191	O	0.423453	0.291066	0.398526
	O4192	O	0.378842	0.291266	0.365975
	O4193	O	0.441378	0.209267	0.428447
	O4194	O	0.444170	0.290293	0.402461
	O4195	O	0.493279	0.290499	0.409773
	O4196	O	0.371393	0.209112	0.419156
	O4197	O	0.423542	0.458742	0.398381
	O4198	O	0.378844	0.459344	0.365934
	O4199	O	0.493323	0.458565	0.409838
	O4200	O	0.444131	0.458358	0.402548
	O4201	O	0.486081	0.209270	0.460841
	O4202	O	0.360914	0.374719	0.421783
	O4203	O	0.503867	0.124895	0.408996
	C4204	C	0.468124	0.214867	0.447907
	C4205	C	0.472810	0.125329	0.450875
	C4206	C	0.468180	0.035711	0.447753
	C4207	C	0.459169	0.035685	0.441938
	C4208	C	0.454486	0.125277	0.438937
	C4209	C	0.459127	0.214839	0.442067
	C4210	C	0.445031	0.125293	0.431445
	C4211	C	0.482362	0.125388	0.457994
	C4212	C	0.416541	0.125301	0.424120
	C4213	C	0.405919	0.125428	0.423570
	C4214	C	0.400918	0.215218	0.422706
	C4215	C	0.391175	0.215079	0.420959
	C4216	C	0.386189	0.125154	0.419994
	C4217	C	0.391192	0.035255	0.420809
	C4218	C	0.400939	0.035425	0.422572
	C4219	C	0.375578	0.124984	0.419284
	C4220	C	0.419765	0.375010	0.395566
	C4221	C	0.410257	0.375296	0.388372
	C4222	C	0.405628	0.465117	0.385273
	C4223	C	0.396613	0.465161	0.379359
	C4224	C	0.391976	0.375401	0.376272
	C4225	C	0.396607	0.285576	0.379354
	C4226	C	0.405602	0.285693	0.385288
	C4227	C	0.382519	0.375274	0.368892
	C4228	C	0.448362	0.374413	0.402801
	C4229	C	0.458933	0.374777	0.403850
	C4230	C	0.463902	0.284970	0.405136
	C4231	C	0.473569	0.284922	0.407392
	C4232	C	0.478547	0.374860	0.408399
	C4233	C	0.473590	0.464685	0.407105
	C4234	C	0.463914	0.464593	0.404819
	C4235	C	0.489109	0.374614	0.409502
	H4236	H	0.477295	0.214977	0.408408
	H4237	H	0.460163	0.214790	0.404375
	H4238	H	0.471551	0.285158	0.450217
	H4239	H	0.455627	0.284927	0.439915
	H4240	H	0.435202	0.124860	0.392795
	H4241	H	0.429920	0.374517	0.434041
	H4242	H	0.362302	0.374530	0.411096
	H4243	H	0.502250	0.124686	0.419553
	H4244	H	0.409031	0.215321	0.387619
	H4245	H	0.393173	0.215310	0.377102
	H4246	H	0.387423	0.285145	0.420297
	H4247	H	0.404632	0.285275	0.423449
	H4248	H	0.393151	0.535226	0.377173
	H4249	H	0.409053	0.535592	0.387520
	H4250	H	0.404694	-0.034523	0.423218
	H4251	H	0.387452	-0.034887	0.420061
	H4252	H	0.455727	-0.034517	0.439672
	H4253	H	0.471653	-0.034311	0.449947
	H4254	H	0.460183	0.534455	0.403798
	H4255	H	0.477346	0.534867	0.407920
	Al4256	Al	0.422668	-0.499571	0.494198
	Al4257	Al	0.422686	-0.250844	0.494281
	Al4258	Al	0.360220	-0.249817	0.431641
	Al4259	Al	0.360198	-0.500556	0.431665
	O4260	O	0.432168	-0.459016	0.508205
	O4261	O	0.423351	-0.374907	0.484301
	O4262	O	0.422279	-0.125306	0.504201
	O4263	O	0.475784	-0.459132	0.542960
	O4264	O	0.412420	-0.459500	0.508766
	O4265	O	0.372609	-0.459160	0.562628
	O4266	O	0.412495	-0.291785	0.508843
	O4267	O	0.413254	-0.209091	0.480535
	O4268	O	0.369712	-0.209237	0.445580
	O4269	O	0.432152	-0.291124	0.508340
	O4270	O	0.433899	-0.209586	0.481637
	O4271	O	0.483301	-0.208907	0.486848
	O4272	O	0.372676	-0.291145	0.562668
	O4273	O	0.413270	-0.041116	0.480395
	O4274	O	0.369660	-0.041120	0.445802
	O4275	O	0.483248	-0.040843	0.486737
	O4276	O	0.433924	-0.041296	0.481799
	O4277	O	0.475831	-0.291308	0.542944
	O4278	O	0.363118	-0.124747	0.569248
	O4279	O	0.493804	-0.374946	0.485875
	C4280	C	0.458336	-0.285678	0.528986
	C4281	C	0.462841	-0.375146	0.532360
	C4282	C	0.458322	-0.464590	0.529035
	C4283	C	0.449565	-0.464376	0.522436
	C4284	C	0.445063	-0.375088	0.519018
	C4285	C	0.449579	-0.285537	0.522390
	C4286	C	0.435795	-0.374971	0.511326
	C4287	C	0.472127	-0.375243	0.540048
	C4288	C	0.409038	-0.375649	0.513183
	C4289	C	0.400419	-0.375581	0.524578
	C4290	C	0.396323	-0.286702	0.530026
	C4291	C	0.388410	-0.286674	0.540761
	C4292	C	0.384365	-0.375575	0.546273
	C4293	C	0.388408	-0.464475	0.540748
	C4294	C	0.396322	-0.464488	0.529982
	C4295	C	0.375972	-0.375451	0.558096
	C4296	C	0.409613	-0.125085	0.477469
	C4297	C	0.400345	-0.125097	0.469751
	C4298	C	0.395860	-0.035646	0.466300
	C4299	C	0.387113	-0.035637	0.459668
	C4300	C	0.382615	-0.125229	0.456314
	C4301	C	0.387100	-0.214724	0.459785
	C4302	C	0.395853	-0.214656	0.466401
	C4303	C	0.373309	-0.125402	0.448666
	C4304	C	0.438118	-0.125471	0.481844
	C4305	C	0.448732	-0.125376	0.482486
	C4306	C	0.453724	-0.215101	0.483483
	C4307	C	0.463435	-0.215184	0.485281
	C4308	C	0.468442	-0.125374	0.486083
	C4309	C	0.463436	-0.035676	0.485108
	C4310	C	0.453716	-0.035572	0.483305
	C4311	C	0.479072	-0.125040	0.486671
	H4312	H	0.467208	-0.284961	0.486028
	H4313	H	0.449958	-0.285259	0.482814
	H4314	H	0.461700	-0.216125	0.531633
	H4315	H	0.446214	-0.215663	0.519783
	H4316	H	0.424656	-0.375252	0.473661
	H4317	H	0.421933	-0.125187	0.514964
	H4318	H	0.362937	-0.124404	0.558568
	H4319	H	0.492250	-0.374759	0.496513
	H4320	H	0.399231	-0.284132	0.469002
	H4321	H	0.383721	-0.284476	0.457244
	H4322	H	0.385422	-0.217387	0.544994
	H4323	H	0.399382	-0.217845	0.525821
	H4324	H	0.383749	0.033700	0.457042
	H4325	H	0.399248	0.034057	0.468802
	H4326	H	0.399346	-0.533150	0.525803
	H4327	H	0.385370	-0.533176	0.544961
	H4328	H	0.446172	-0.533954	0.519932
	H4329	H	0.461650	-0.534290	0.531754
	H4330	H	0.449932	0.034140	0.482506
	H4331	H	0.467173	0.034063	0.485724
	Al4332	Al	0.422649	0.000209	0.494231
	Al4333	Al	0.422702	0.249603	0.494077
	Al4334	Al	0.360167	0.250610	0.431772
	Al4335	Al	0.360179	-0.000493	0.431735
	O4336	O	0.432126	0.040962	0.508200
	O4337	O	0.423379	0.124643	0.484226
	O4338	O	0.422318	0.374856	0.504100
	O4339	O	0.475714	0.040833	0.543018
	O4340	O	0.412387	0.041049	0.508664
	O4341	O	0.372687	0.041544	0.562698
	O4342	O	0.412456	0.208827	0.508603
	O4343	O	0.413334	0.290763	0.480254
	O4344	O	0.369736	0.290856	0.445603
	O4345	O	0.432118	0.208895	0.508181
	O4346	O	0.433920	0.291238	0.481598
	O4347	O	0.483262	0.291626	0.486925
	O4348	O	0.372667	0.209623	0.562687
	O4349	O	0.413360	0.458997	0.480302
	O4350	O	0.369652	0.458958	0.445789
	O4351	O	0.483224	0.459810	0.486848
	O4352	O	0.433889	0.459307	0.481647
	O4353	O	0.475700	0.208909	0.543084
	O4354	O	0.362971	0.374973	0.569317
	O4355	O	0.493775	0.124557	0.485937
	C4356	C	0.458336	0.214588	0.528863
	C4357	C	0.462800	0.125015	0.532329
	C4358	C	0.458272	0.035662	0.528940
	C4359	C	0.449533	0.035572	0.522288
	C4360	C	0.445052	0.125129	0.518846
	C4361	C	0.449589	0.214687	0.522214
	C4362	C	0.435764	0.125061	0.511161
	C4363	C	0.472051	0.125004	0.540066
	C4364	C	0.409013	0.125252	0.513023
	C4365	C	0.400415	0.125287	0.524473
	C4366	C	0.396394	0.214490	0.530068
	C4367	C	0.388501	0.214694	0.540808
	C4368	C	0.384404	0.125725	0.546274
	C4369	C	0.388411	0.036543	0.540661
	C4370	C	0.396294	0.036306	0.529916
	C4371	C	0.375993	0.125436	0.558133
	C4372	C	0.409694	0.375026	0.477320
	C4373	C	0.400396	0.375127	0.469701
	C4374	C	0.395879	0.464428	0.466350
	C4375	C	0.387127	0.464510	0.459779
	C4376	C	0.382631	0.374971	0.456403
	C4377	C	0.387136	0.285554	0.459806
	C4378	C	0.395875	0.285606	0.466392
	C4379	C	0.373327	0.375132	0.448686
	C4380	C	0.438102	0.375345	0.481750
	C4381	C	0.448716	0.375363	0.482493
	C4382	C	0.453713	0.285570	0.483386
	C4383	C	0.463458	0.285644	0.485184
	C4384	C	0.468450	0.375388	0.486095
	C4385	C	0.463455	0.465121	0.485198
	C4386	C	0.453710	0.465105	0.483443
	C4387	C	0.479047	0.375635	0.486752
	H4388	H	0.467204	0.215767	0.485958
	H4389	H	0.449952	0.215755	0.482691
	H4390	H	0.461743	0.284127	0.531364
	H4391	H	0.446271	0.284378	0.519520
	H4392	H	0.424607	0.124163	0.473579
	H4393	H	0.422025	0.374294	0.514904
	H4394	H	0.362628	0.375132	0.558658
	H4395	H	0.492258	0.124206	0.496516
	H4396	H	0.399271	0.216051	0.468983
	H4397	H	0.383766	0.215916	0.457200
	H4398	H	0.385473	0.283588	0.545100
	H4399	H	0.399485	0.283590	0.525911
	H4400	H	0.383734	0.534070	0.457180
	H4401	H	0.399275	0.533795	0.468925
	H4402	H	0.399332	-0.032831	0.525695
	H4403	H	0.385336	-0.032336	0.544827
	H4404	H	0.446172	-0.034121	0.519684
	H4405	H	0.461645	-0.033822	0.531565
	H4406	H	0.449957	0.535229	0.482769
	H4407	H	0.467196	0.535040	0.485943
	Al4408	Al	0.425818	-0.500267	0.641643
	Al4409	Al	0.425865	-0.250234	0.641650
	Al4410	Al	0.363427	-0.249741	0.578955
	Al4411	Al	0.363329	-0.499978	0.578977
	O4412	O	0.436049	-0.459322	0.653736
	O4413	O	0.425500	-0.375448	0.631935
	O4414	O	0.426322	-0.125272	0.651349
	O4415	O	0.478204	-0.459715	0.692029
	O4416	O	0.416739	-0.458915	0.658252
	O4417	O	0.379945	-0.459368	0.717700
	O4418	O	0.416806	-0.290974	0.658341
	O4419	O	0.415671	-0.209259	0.629531
	O4420	O	0.373654	-0.209199	0.591086
	O4421	O	0.436112	-0.291192	0.653640
	O4422	O	0.435111	-0.208925	0.625266
	O4423	O	0.474872	-0.209257	0.571178
	O4424	O	0.379899	-0.291100	0.717729
	O4425	O	0.415673	-0.041405	0.629586
	O4426	O	0.373618	-0.041177	0.591202
	O4427	O	0.474913	-0.041699	0.571329
	O4428	O	0.435158	-0.040974	0.625296
	O4429	O	0.478194	-0.291795	0.691942
	O4430	O	0.370439	-0.124953	0.724926
	O4431	O	0.484796	-0.375113	0.566802
	C4432	C	0.461371	-0.286664	0.676586
	C4433	C	0.465640	-0.375788	0.680487
	C4434	C	0.461310	-0.464588	0.676645
	C4435	C	0.452909	-0.464630	0.669058
	C4436	C	0.448650	-0.375641	0.665110
	C4437	C	0.452964	-0.286791	0.668970
	C4438	C	0.439611	-0.375168	0.656880
	C4439	C	0.474632	-0.375842	0.688831
	C4440	C	0.413636	-0.374749	0.663184
	C4441	C	0.405706	-0.374737	0.675959
	C4442	C	0.401945	-0.285831	0.682073
	C4443	C	0.394613	-0.285862	0.693886
	C4444	C	0.390848	-0.374986	0.699903
	C4445	C	0.394590	-0.464002	0.693790
	C4446	C	0.401914	-0.463789	0.681951
	C4447	C	0.383030	-0.375117	0.712796
	C4448	C	0.412116	-0.125147	0.626408
	C4449	C	0.403155	-0.125111	0.617978
	C4450	C	0.398847	-0.036205	0.614094
	C4451	C	0.390473	-0.036376	0.606435
	C4452	C	0.386205	-0.125493	0.602555
	C4453	C	0.390549	-0.214283	0.606347
	C4454	C	0.398920	-0.214056	0.614023
	C4455	C	0.377190	-0.125383	0.594233
	C4456	C	0.438446	-0.124946	0.620750
	C4457	C	0.446886	-0.125057	0.608925
	C4458	C	0.450940	-0.214150	0.603434
	C4459	C	0.458840	-0.214300	0.592648
	C4460	C	0.462878	-0.125540	0.587101
	C4461	C	0.458814	-0.036586	0.592582
	C4462	C	0.450931	-0.036199	0.603368
	C4463	C	0.471460	-0.125356	0.575622
	H4464	H	0.461889	-0.283511	0.588402
	H4465	H	0.447901	-0.283061	0.607691
	H4466	H	0.464615	-0.217724	0.679621
	H4467	H	0.449662	-0.217824	0.666064
	H4468	H	0.425353	-0.376132	0.621248
	H4469	H	0.426727	-0.125085	0.662007
	H4470	H	0.369944	-0.124835	0.714269
	H4471	H	0.484483	-0.374630	0.577575
	H4472	H	0.402191	-0.282659	0.617017
	H4473	H	0.387348	-0.282839	0.603206
	H4474	H	0.391849	-0.216681	0.698579
	H4475	H	0.404801	-0.216778	0.677535
	H4476	H	0.387217	0.032382	0.603385
	H4477	H	0.402080	0.032771	0.617156
	H4478	H	0.404706	-0.532859	0.677261
	H4479	H	0.391757	-0.533047	0.698369
	H4480	H	0.449604	-0.533223	0.666230
	H4481	H	0.464531	-0.533412	0.679728
	H4482	H	0.447916	0.032846	0.607577
	H4483	H	0.461812	0.032248	0.588369
	Al4484	Al	0.425857	-0.000273	0.641708
	Al4485	Al	0.425841	0.249764	0.641659
	Al4486	Al	0.363369	0.249832	0.579035
	Al4487	Al	0.363415	0.000087	0.579014
	O4488	O	0.436066	0.041246	0.653726
	O4489	O	0.425426	0.124612	0.631923
	O4490	O	0.426135	0.374760	0.651323
	O4491	O	0.478161	0.040857	0.691965
	O4492	O	0.416754	0.040978	0.658298
	O4493	O	0.379870	0.040522	0.717773
	O4494	O	0.416675	0.208721	0.658252
	O4495	O	0.415673	0.290618	0.629383
	O4496	O	0.373541	0.291128	0.591251
	O4497	O	0.436082	0.209195	0.653705
	O4498	O	0.435059	0.290624	0.625216
	O4499	O	0.474877	0.290674	0.571296
	O4500	O	0.379919	0.208465	0.717832
	O4501	O	0.415614	0.458679	0.629508
	O4502	O	0.373590	0.459324	0.591077
	O4503	O	0.474849	0.458674	0.571315
	O4504	O	0.435078	0.458782	0.625227
	O4505	O	0.478171	0.209016	0.691992
	O4506	O	0.370492	0.374642	0.724868
	O4507	O	0.484795	0.124869	0.566792
	C4508	C	0.461354	0.214384	0.676593
	C4509	C	0.465615	0.125310	0.680513
	C4510	C	0.461312	0.036154	0.676636
	C4511	C	0.452906	0.036167	0.669009
	C4512	C	0.448644	0.125243	0.665122
	C4513	C	0.452962	0.214351	0.668962
	C4514	C	0.439630	0.125453	0.656821
	C4515	C	0.474628	0.125159	0.688803
	C4516	C	0.413577	0.124743	0.663154
	C4517	C	0.405695	0.124871	0.675986
	C4518	C	0.401964	0.213875	0.682093
	C4519	C	0.394643	0.213744	0.693969
	C4520	C	0.390871	0.124713	0.699999
	C4521	C	0.394558	0.035838	0.693786
	C4522	C	0.401873	0.035856	0.681926
	C4523	C	0.383013	0.124522	0.712860
	C4524	C	0.412092	0.374588	0.626331
	C4525	C	0.403128	0.374785	0.617859
	C4526	C	0.398835	0.464051	0.614038
	C4527	C	0.390455	0.464225	0.606379
	C4528	C	0.386145	0.375037	0.602522
	C4529	C	0.390463	0.285817	0.606276
	C4530	C	0.398855	0.285757	0.613902
	C4531	C	0.377133	0.375219	0.594274
	C4532	C	0.438442	0.374720	0.620742
	C4533	C	0.446856	0.374544	0.608915
	C4534	C	0.450867	0.285601	0.603321
	C4535	C	0.458768	0.285694	0.592573
	C4536	C	0.462868	0.374768	0.587211
	C4537	C	0.458814	0.463650	0.592705
	C4538	C	0.450912	0.463651	0.603475
	C4539	C	0.471471	0.374649	0.575734
	H4540	H	0.461795	0.216705	0.588347
	H4541	H	0.447833	0.216660	0.607486
	H4542	H	0.464633	0.283203	0.679538
	H4543	H	0.449746	0.283348	0.665865
	H4544	H	0.425064	0.124447	0.621232
	H4545	H	0.426507	0.374795	0.662055
	H4546	H	0.370109	0.374820	0.714187
	H4547	H	0.484655	0.124720	0.577613
	H4548	H	0.402114	0.216748	0.616965
	H4549	H	0.387255	0.216896	0.603225
	H4550	H	0.391841	0.282760	0.698638
	H4551	H	0.404792	0.282807	0.677484
	H4552	H	0.387154	0.533299	0.603422
	H4553	H	0.402064	0.533136	0.617162
	H4554	H	0.404628	-0.033026	0.677146
	H4555	H	0.391683	-0.033460	0.698277
	H4556	H	0.449653	-0.032805	0.665946
	H4557	H	0.464571	-0.032739	0.679574
	H4558	H	0.447936	0.532481	0.607792
	H4559	H	0.461934	0.532640	0.588604
	Al4560	Al	0.433419	-0.500005	0.797031
	Al4561	Al	0.433451	-0.250004	0.797053
	Al4562	Al	0.370947	-0.250084	0.734484
	Al4563	Al	0.370933	-0.500451	0.734527
	O4564	O	0.443777	-0.459470	0.808863
	O4565	O	0.432953	-0.375009	0.787399
	O4566	O	0.433913	-0.125070	0.806726
	O4567	O	0.485666	-0.459054	0.847574
	O4568	O	0.424475	-0.459163	0.813875
	O4569	O	0.387998	-0.459320	0.873905
	O4570	O	0.424439	-0.291240	0.813818
	O4571	O	0.423159	-0.209191	0.785046
	O4572	O	0.381277	-0.209238	0.746365
	O4573	O	0.443745	-0.291286	0.808970
	O4574	O	0.442429	-0.208831	0.780219
	O4575	O	0.479249	-0.208573	0.720709
	O4576	O	0.387965	-0.291282	0.873804
	O4577	O	0.423132	-0.040954	0.785163
	O4578	O	0.381246	-0.040898	0.746510
	O4579	O	0.479195	-0.040638	0.720727
	O4580	O	0.442433	-0.040539	0.780230
	O4581	O	0.485648	-0.291049	0.847529
	O4582	O	0.378575	-0.124856	0.881027
	O4583	O	0.488758	-0.374901	0.713867
	C4584	C	0.468850	-0.286274	0.832153
	C4585	C	0.473159	-0.375365	0.835989
	C4586	C	0.468932	-0.464620	0.831997
	C4587	C	0.460582	-0.464657	0.824236
	C4588	C	0.456301	-0.375475	0.820364
	C4589	C	0.460501	-0.286316	0.824428
	C4590	C	0.447301	-0.375236	0.812064
	C4591	C	0.482141	-0.375193	0.844383
	C4592	C	0.421367	-0.375170	0.818809
	C4593	C	0.413553	-0.375430	0.831733
	C4594	C	0.409854	-0.286376	0.837863
	C4595	C	0.402599	-0.286414	0.849821
	C4596	C	0.398882	-0.375489	0.855952
	C4597	C	0.402597	-0.464515	0.849822
	C4598	C	0.409853	-0.464559	0.837879
	C4599	C	0.391075	-0.375475	0.868879
	C4600	C	0.419610	-0.124821	0.781975
	C4601	C	0.410640	-0.124985	0.773574
	C4602	C	0.406435	-0.035741	0.769444
	C4603	C	0.398098	-0.035624	0.761676
	C4604	C	0.393773	-0.125078	0.757958
	C4605	C	0.398013	-0.214191	0.761982
	C4606	C	0.406347	-0.214259	0.769738
	C4607	C	0.384777	-0.125044	0.749599
	C4608	C	0.445525	-0.124847	0.775306
	C4609	C	0.453410	-0.124792	0.762463
	C4610	C	0.457158	-0.213980	0.756399
	C4611	C	0.464469	-0.213838	0.744550
	C4612	C	0.468204	-0.124754	0.738461
	C4613	C	0.464420	-0.035583	0.744485
	C4614	C	0.457123	-0.035654	0.756334
	C4615	C	0.476130	-0.124763	0.725643
	H4616	H	0.467303	-0.283085	0.739930
	H4617	H	0.454334	-0.283122	0.761045
	H4618	H	0.472033	-0.217285	0.835312
	H4619	H	0.457228	-0.217205	0.821509
	H4620	H	0.432556	-0.375423	0.776750
	H4621	H	0.434387	-0.125227	0.817449
	H4622	H	0.377975	-0.124470	0.870382
	H4623	H	0.489267	-0.374795	0.724512
	H4624	H	0.409538	-0.283171	0.772887
	H4625	H	0.394740	-0.283153	0.758950
	H4626	H	0.399830	-0.217488	0.854539
	H4627	H	0.412665	-0.217318	0.833214
	H4628	H	0.394885	0.033311	0.758481
	H4629	H	0.409738	0.033073	0.772384
	H4630	H	0.412641	-0.533488	0.833216
	H4631	H	0.399810	-0.533658	0.854492
	H4632	H	0.457357	-0.533589	0.821164
	H4633	H	0.472216	-0.533472	0.835022
	H4634	H	0.454259	0.033447	0.760933
	H4635	H	0.467234	0.033441	0.739838
	Al4636	Al	0.433438	-0.000030	0.797024
	Al4637	Al	0.433403	0.250110	0.796994
	Al4638	Al	0.370928	0.249843	0.734520
	Al4639	Al	0.370902	-0.000205	0.734646
	O4640	O	0.443778	0.040938	0.808856
	O4641	O	0.432914	0.124905	0.787357
	O4642	O	0.433920	0.374948	0.806653
	O4643	O	0.485721	0.040929	0.847471
	O4644	O	0.424460	0.040735	0.813859
	O4645	O	0.387978	0.040941	0.873866
	O4646	O	0.424433	0.208766	0.813776
	O4647	O	0.423165	0.291065	0.785026
	O4648	O	0.381208	0.290824	0.746463
	O4649	O	0.443726	0.209107	0.808859
	O4650	O	0.442411	0.290409	0.780210
	O4651	O	0.479250	0.290489	0.720691
	O4652	O	0.387983	0.208805	0.873814
	O4653	O	0.423105	0.459172	0.785166
	O4654	O	0.381244	0.458814	0.746424
	O4655	O	0.479289	0.458330	0.720749
	O4656	O	0.442364	0.458558	0.780173
	O4657	O	0.485646	0.209075	0.847585
	O4658	O	0.378506	0.375080	0.881063
	O4659	O	0.488728	0.124789	0.713832
	C4660	C	0.468876	0.214066	0.832095
	C4661	C	0.473157	0.124814	0.835996
	C4662	C	0.468940	0.035780	0.831912
	C4663	C	0.460597	0.035735	0.824137
	C4664	C	0.456272	0.124956	0.820363
	C4665	C	0.460515	0.214037	0.824345
	C4666	C	0.447287	0.125207	0.812014
	C4667	C	0.482153	0.124880	0.844352
	C4668	C	0.421361	0.124831	0.818815
	C4669	C	0.413534	0.124737	0.831702
	C4670	C	0.409856	0.213805	0.837872
	C4671	C	0.402613	0.213931	0.849856
	C4672	C	0.398881	0.124829	0.855910
	C4673	C	0.402570	0.035808	0.849778
	C4674	C	0.409823	0.035732	0.837790
	C4675	C	0.391062	0.124826	0.868861
	C4676	C	0.419617	0.375135	0.781904
	C4677	C	0.410649	0.374974	0.773464
	C4678	C	0.406379	0.464006	0.769506
	C4679	C	0.398020	0.463838	0.761775
	C4680	C	0.393752	0.374667	0.757922
	C4681	C	0.398002	0.285693	0.761909
	C4682	C	0.406369	0.285874	0.769636
	C4683	C	0.384758	0.374848	0.749591
	C4684	C	0.445499	0.374732	0.775256
	C4685	C	0.453383	0.374488	0.762446
	C4686	C	0.457174	0.285459	0.756420
	C4687	C	0.464488	0.285670	0.744548
	C4688	C	0.468203	0.374663	0.738418
	C4689	C	0.464424	0.463692	0.744487
	C4690	C	0.457111	0.463505	0.756354
	C4691	C	0.476132	0.374628	0.725648
	H4692	H	0.467353	0.216659	0.739956
	H4693	H	0.454404	0.216083	0.761114
	H4694	H	0.472103	0.283272	0.835173
	H4695	H	0.457242	0.282865	0.821365
	H4696	H	0.432458	0.124150	0.776683
	H4697	H	0.434587	0.374696	0.817282
	H4698	H	0.377922	0.375367	0.870361
	H4699	H	0.489149	0.123770	0.724417
	H4700	H	0.409606	0.217370	0.772742
	H4701	H	0.394740	0.216885	0.758914
	H4702	H	0.399856	0.282978	0.854551
	H4703	H	0.412689	0.283045	0.833301
	H4704	H	0.394769	0.532752	0.758742
	H4705	H	0.409613	0.532903	0.772520
	H4706	H	0.412605	-0.033515	0.833156
	H4707	H	0.399767	-0.033224	0.854436
	H4708	H	0.457424	-0.033285	0.820942
	H4709	H	0.472219	-0.033356	0.834816
	H4710	H	0.454285	0.532655	0.760959
	H4711	H	0.467231	0.533063	0.739923
	Al4712	Al	0.441564	-0.500154	0.953040
	Al4713	Al	0.441568	-0.250061	0.953090
	Al4714	Al	0.379015	-0.249795	0.890644
	Al4715	Al	0.379025	-0.500263	0.890722
	O4716	O	0.451892	-0.459230	0.964921
	O4717	O	0.441109	-0.374926	0.943390
	O4718	O	0.442068	-0.125077	0.962701
	O4719	O	0.493743	-0.459153	1.003741
	O4720	O	0.432617	-0.459026	0.969825
	O4721	O	0.395747	-0.459454	1.029275
	O4722	O	0.432599	-0.291183	0.969884
	O4723	O	0.431222	-0.209449	0.941286
	O4724	O	0.389338	-0.209139	0.902558
	O4725	O	0.451882	-0.290884	0.964950
	O4726	O	0.450541	-0.208761	0.936242
	O4727	O	0.487027	-0.209019	0.876220
	O4728	O	0.395797	-0.291303	1.029294
	O4729	O	0.431298	-0.041589	0.941131
	O4730	O	0.389309	-0.041072	0.902664
	O4731	O	0.486961	-0.040900	0.876170
	O4732	O	0.450621	-0.040779	0.936340
	O4733	O	0.493755	-0.290998	1.003689
	O4734	O	0.386278	-0.125139	1.036174
	O4735	O	0.496454	-0.375101	0.869038
	C4736	C	0.476986	-0.286045	0.988238
	C4737	C	0.481273	-0.375283	0.992077
	C4738	C	0.477033	-0.464420	0.988069
	C4739	C	0.468685	-0.464459	0.980282
	C4740	C	0.464413	-0.375219	0.976424
	C4741	C	0.468646	-0.286037	0.980473
	C4742	C	0.455426	-0.375103	0.968083
	C4743	C	0.490222	-0.375070	1.000542
	C4744	C	0.429471	-0.375169	0.974759
	C4745	C	0.421571	-0.375446	0.987567
	C4746	C	0.417812	-0.286523	0.993621
	C4747	C	0.410494	-0.286476	1.005468
	C4748	C	0.406734	-0.375512	1.011521
	C4749	C	0.410485	-0.464435	1.005444
	C4750	C	0.417813	-0.464337	0.993616
	C4751	C	0.398899	-0.375293	1.024369
	C4752	C	0.427710	-0.125463	0.938063
	C4753	C	0.418756	-0.125316	0.929632
	C4754	C	0.414508	-0.036169	0.925663
	C4755	C	0.406165	-0.036194	0.917918
	C4756	C	0.401868	-0.125245	0.914042
	C4757	C	0.406151	-0.214365	0.917938
	C4758	C	0.414506	-0.214416	0.925682
	C4759	C	0.392866	-0.125145	0.905753
	C4760	C	0.453661	-0.124712	0.931306
	C4761	C	0.461459	-0.124767	0.918354
	C4762	C	0.465127	-0.213779	0.912174
	C4763	C	0.472347	-0.214119	0.900141
	C4764	C	0.476080	-0.125144	0.894068
	C4765	C	0.472372	-0.036134	0.900196
	C4766	C	0.465168	-0.035853	0.912229
	C4767	C	0.483874	-0.124920	0.881127
	H4768	H	0.475070	-0.283226	0.895406
	H4769	H	0.462306	-0.282676	0.916803
	H4770	H	0.480193	-0.217063	0.991384
	H4771	H	0.465372	-0.216955	0.977534
	H4772	H	0.440728	-0.375753	0.932692
	H4773	H	0.442400	-0.125250	0.973442
	H4774	H	0.385677	-0.125208	1.025564
	H4775	H	0.497021	-0.374625	0.879614
	H4776	H	0.417724	-0.283305	0.928794
	H4777	H	0.402918	-0.283216	0.914812
	H4778	H	0.407679	-0.217790	1.010090
	H4779	H	0.420638	-0.217512	0.989033
	H4780	H	0.402974	0.032728	0.914808
	H4781	H	0.417736	0.032644	0.928791
	H4782	H	0.420639	-0.533042	0.988982
	H4783	H	0.407681	-0.533644	1.010072
	H4784	H	0.465466	-0.533348	0.977176
	H4785	H	0.480282	-0.533259	0.991108
	H4786	H	0.462375	0.033310	0.916849
	H4787	H	0.475132	0.032961	0.895490
	Al4788	Al	0.441576	-0.000144	0.953081
	Al4789	Al	0.441557	0.249682	0.953035
	Al4790	Al	0.379027	0.249811	0.890614
	Al4791	Al	0.379026	-0.000025	0.890747
	O4792	O	0.451899	0.040495	0.964930
	O4793	O	0.441025	0.124756	0.943377
	O4794	O	0.441994	0.374763	0.962694
	O4795	O	0.493747	0.040890	1.003663
	O4796	O	0.432596	0.040800	0.969880
	O4797	O	0.395794	0.040815	1.029272
	O4798	O	0.432619	0.208754	0.969845
	O4799	O	0.431293	0.290691	0.941008
	O4800	O	0.389354	0.290719	0.902512
	O4801	O	0.451878	0.208703	0.964935
	O4802	O	0.450531	0.290534	0.936213
	O4803	O	0.487024	0.290921	0.876202
	O4804	O	0.395714	0.208771	1.029253
	O4805	O	0.431221	0.459111	0.941220
	O4806	O	0.389308	0.458806	0.902554
	O4807	O	0.487035	0.458922	0.876296
	O4808	O	0.450461	0.458537	0.936181
	O4809	O	0.493786	0.209093	1.003641
	O4810	O	0.386231	0.375119	1.036174
	O4811	O	0.496459	0.124781	0.869048
	C4812	C	0.477018	0.214185	0.988098
	C4813	C	0.481284	0.124986	0.992042
	C4814	C	0.477029	0.035776	0.988160
	C4815	C	0.468680	0.035957	0.980399
	C4816	C	0.464422	0.125026	0.976424
	C4817	C	0.468658	0.214336	0.980359
	C4818	C	0.455433	0.124842	0.968056
	C4819	C	0.490247	0.125068	1.000474
	C4820	C	0.429477	0.124829	0.974736
	C4821	C	0.421601	0.124961	0.987595
	C4822	C	0.417902	0.213961	0.993715
	C4823	C	0.410574	0.213981	1.005567
	C4824	C	0.406771	0.125072	1.011551
	C4825	C	0.410487	0.036199	1.005465
	C4826	C	0.417816	0.035955	0.993586
	C4827	C	0.398884	0.124851	1.024389
	C4828	C	0.427728	0.374956	0.937974
	C4829	C	0.418744	0.374958	0.929577
	C4830	C	0.414482	0.464249	0.925709
	C4831	C	0.406109	0.464081	0.917981
	C4832	C	0.401852	0.374664	0.914098
	C4833	C	0.406122	0.285288	0.917966
	C4834	C	0.414482	0.285569	0.925698
	C4835	C	0.392867	0.374752	0.905696
	C4836	C	0.453610	0.374709	0.931253
	C4837	C	0.461402	0.374779	0.918278
	C4838	C	0.465081	0.285817	0.912102
	C4839	C	0.472337	0.285863	0.900146
	C4840	C	0.476102	0.374669	0.894112
	C4841	C	0.472374	0.463602	0.900198
	C4842	C	0.465127	0.463685	0.912167
	C4843	C	0.483935	0.374923	0.881239
	H4844	H	0.475132	0.217191	0.895469
	H4845	H	0.462318	0.216606	0.916728
	H4846	H	0.480258	0.283264	0.991136
	H4847	H	0.465431	0.283191	0.977287
	H4848	H	0.440588	0.124091	0.932613
	H4849	H	0.442405	0.374953	0.973331
	H4850	H	0.385825	0.375277	1.025514
	H4851	H	0.496868	0.124182	0.879698
	H4852	H	0.417732	0.216605	0.928741
	H4853	H	0.402914	0.216075	0.914940
	H4854	H	0.407795	0.283327	1.010209
	H4855	H	0.420775	0.282849	0.989175
	H4856	H	0.402850	0.533121	0.914945
	H4857	H	0.417709	0.533462	0.928782
	H4858	H	0.420576	-0.033216	0.988943
	H4859	H	0.407641	-0.032865	1.010024
	H4860	H	0.465449	-0.032923	0.977319
	H4861	H	0.480254	-0.033223	0.991251
	H4862	H	0.462365	0.532936	0.916868
	H4863	H	0.475190	0.532785	0.895561
	Al4864	Al	0.566576	-0.500070	0.078100
	Al4865	Al	0.566545	-0.250040	0.078130
	Al4866	Al	0.504036	-0.250113	0.015552
	Al4867	Al	0.504047	-0.500161	0.015627
	O4868	O	0.576880	-0.459320	0.090001
	O4869	O	0.566052	-0.375018	0.068448
	O4870	O	0.567086	-0.124976	0.087711
	O4871	O	0.618743	-0.459035	0.128720
	O4872	O	0.557591	-0.458992	0.094888
	O4873	O	0.520737	-0.459485	0.154355
	O4874	O	0.557520	-0.291103	0.094833
	O4875	O	0.556265	-0.209490	0.066179
	O4876	O	0.514335	-0.209300	0.027446
	O4877	O	0.576832	-0.291195	0.090040
	O4878	O	0.575490	-0.209260	0.061286
	O4879	O	0.612010	-0.209557	0.001285
	O4880	O	0.520735	-0.291530	0.154408
	O4881	O	0.556245	-0.041202	0.066263
	O4882	O	0.514347	-0.041161	0.027464
	O4883	O	0.612064	-0.041271	0.001325
	O4884	O	0.575499	-0.041038	0.061269
	O4885	O	0.618739	-0.290950	0.128668
	O4886	O	0.511244	-0.125354	0.161130
	O4887	O	0.621481	-0.375274	-0.005909
	C4888	C	0.601985	-0.285511	0.113235
	C4889	C	0.606269	-0.374917	0.117074
	C4890	C	0.602000	-0.464245	0.113121
	C4891	C	0.593643	-0.464342	0.105402
	C4892	C	0.589375	-0.374927	0.101552
	C4893	C	0.593631	-0.285744	0.105525
	C4894	C	0.580383	-0.375190	0.093189
	C4895	C	0.615218	-0.375067	0.125526
	C4896	C	0.554460	-0.375037	0.099781
	C4897	C	0.546588	-0.375243	0.112687
	C4898	C	0.542816	-0.286532	0.118733
	C4899	C	0.535533	-0.286543	0.130599
	C4900	C	0.531786	-0.375442	0.136644
	C4901	C	0.535512	-0.464130	0.130544
	C4902	C	0.542816	-0.464163	0.118673
	C4903	C	0.523881	-0.375497	0.149488
	C4904	C	0.552706	-0.125256	0.063097
	C4905	C	0.543732	-0.125155	0.054680
	C4906	C	0.539417	-0.036164	0.050833
	C4907	C	0.531068	-0.036093	0.043076
	C4908	C	0.526861	-0.125185	0.039020
	C4909	C	0.531190	-0.214137	0.042790
	C4910	C	0.539542	-0.214111	0.050570
	C4911	C	0.517881	-0.125380	0.030616
	C4912	C	0.578581	-0.125033	0.056283
	C4913	C	0.586397	-0.125141	0.043388
	C4914	C	0.590074	-0.214080	0.037164
	C4915	C	0.597319	-0.214227	0.025222
	C4916	C	0.601097	-0.125207	0.019146
	C4917	C	0.597413	-0.036152	0.025342
	C4918	C	0.590166	-0.036047	0.037286
	C4919	C	0.608945	-0.125372	0.006225
	H4920	H	0.600091	-0.282993	0.020498
	H4921	H	0.587214	-0.282907	0.041761
	H4922	H	0.605189	-0.216484	0.116405
	H4923	H	0.590392	-0.216687	0.102531
	H4924	H	0.565557	-0.375301	0.057821
	H4925	H	0.567639	-0.124696	0.098402
	H4926	H	0.510680	-0.125094	0.150503
	H4927	H	0.621788	-0.375242	0.004805
	H4928	H	0.542829	-0.283077	0.053520
	H4929	H	0.528004	-0.283105	0.039609
	H4930	H	0.532718	-0.217829	0.135237
	H4931	H	0.545595	-0.217501	0.114057
	H4932	H	0.527779	0.032421	0.040108
	H4933	H	0.542609	0.032633	0.053940
	H4934	H	0.545626	-0.533215	0.113978
	H4935	H	0.532696	-0.533291	0.135137
	H4936	H	0.590416	-0.533031	0.102263
	H4937	H	0.605248	-0.533127	0.116178
	H4938	H	0.587382	0.032642	0.042008
	H4939	H	0.600254	0.032467	0.020670
	Al4940	Al	0.566546	0.000106	0.078081
	Al4941	Al	0.566569	0.250023	0.078033
	Al4942	Al	0.504071	0.249802	0.015545
	Al4943	Al	0.504052	-0.000193	0.015495
	O4944	O	0.576870	0.040800	0.089966
	O4945	O	0.566100	0.124932	0.068442
	O4946	O	0.567123	0.374776	0.087785
	O4947	O	0.618684	0.040747	0.128742
	O4948	O	0.557560	0.040906	0.094808
	O4949	O	0.520832	0.040884	0.154356
	O4950	O	0.557566	0.208766	0.094842
	O4951	O	0.556287	0.290803	0.066171
	O4952	O	0.514373	0.290755	0.027479
	O4953	O	0.576878	0.208728	0.089908
	O4954	O	0.575493	0.291081	0.061225
	O4955	O	0.612016	0.290976	0.001271
	O4956	O	0.520761	0.208690	0.154366
	O4957	O	0.556253	0.458862	0.066273
	O4958	O	0.514357	0.458893	0.027487
	O4959	O	0.612021	0.459102	0.001286
	O4960	O	0.575521	0.458972	0.061226
	O4961	O	0.618688	0.208781	0.128795
	O4962	O	0.511200	0.374938	0.161218
	O4963	O	0.621451	0.125013	-0.005826
	C4964	C	0.601908	0.214134	0.113324
	C4965	C	0.606185	0.124959	0.117171
	C4966	C	0.601957	0.035764	0.113196
	C4967	C	0.593628	0.035858	0.105421
	C4968	C	0.589361	0.125029	0.101543
	C4969	C	0.593562	0.214321	0.105550
	C4970	C	0.580403	0.124627	0.093121
	C4971	C	0.615152	0.124780	0.125602
	C4972	C	0.554442	0.124938	0.099727
	C4973	C	0.546604	0.124767	0.112613
	C4974	C	0.542863	0.213631	0.118719
	C4975	C	0.535582	0.213866	0.130610
	C4976	C	0.531811	0.125173	0.136672
	C4977	C	0.535565	0.036120	0.130611
	C4978	C	0.542841	0.035931	0.118713
	C4979	C	0.523938	0.124834	0.149494
	C4980	C	0.552741	0.374769	0.063023
	C4981	C	0.543756	0.374753	0.054649
	C4982	C	0.539476	0.463699	0.050741
	C4983	C	0.531122	0.463811	0.043007
	C4984	C	0.526873	0.374816	0.039043
	C4985	C	0.531153	0.285759	0.042938
	C4986	C	0.539503	0.285755	0.050688
	C4987	C	0.517884	0.374796	0.030648
	C4988	C	0.578593	0.375067	0.056219
	C4989	C	0.586384	0.375008	0.043263
	C4990	C	0.590074	0.286037	0.037128
	C4991	C	0.597351	0.286117	0.025173
	C4992	C	0.601097	0.375196	0.019114
	C4993	C	0.597428	0.464095	0.025309
	C4994	C	0.590154	0.464008	0.037247
	C4995	C	0.608937	0.375126	0.006250
	H4996	H	0.600136	0.217244	0.020554
	H4997	H	0.587265	0.216901	0.041776
	H4998	H	0.605134	0.283181	0.116486
	H4999	H	0.590293	0.283135	0.102573
	H5000	H	0.565561	0.124710	0.057844
	H5001	H	0.567561	0.375035	0.098444
	H5002	H	0.510700	0.375133	0.150561
	H5003	H	0.621694	0.124965	0.004896
	H5004	H	0.542762	0.217001	0.053691
	H5005	H	0.527910	0.216810	0.039853
	H5006	H	0.532775	0.282650	0.135261
	H5007	H	0.545668	0.282371	0.114052
	H5008	H	0.527880	0.532742	0.039947
	H5009	H	0.542722	0.532580	0.053778
	H5010	H	0.545657	-0.033161	0.114109
	H5011	H	0.532760	-0.032700	0.135267
	H5012	H	0.590409	-0.033277	0.102294
	H5013	H	0.605176	-0.033440	0.116239
	H5014	H	0.587394	0.533078	0.041963
	H5015	H	0.600305	0.533138	0.020756
	Al5016	Al	0.574161	-0.500361	0.233444
	Al5017	Al	0.574138	-0.250230	0.233483
	Al5018	Al	0.511616	-0.250398	0.170934
	Al5019	Al	0.511606	-0.500103	0.170972
	O5020	O	0.584340	-0.459258	0.245567
	O5021	O	0.573790	-0.375233	0.223699
	O5022	O	0.574495	-0.125069	0.243213
	O5023	O	0.626404	-0.459514	0.283894
	O5024	O	0.564934	-0.459002	0.249839
	O5025	O	0.525125	-0.459271	0.303770
	O5026	O	0.564852	-0.290952	0.249803
	O5027	O	0.563932	-0.209345	0.221351
	O5028	O	0.521847	-0.209567	0.183077
	O5029	O	0.584322	-0.290994	0.245590
	O5030	O	0.583247	-0.208783	0.216934
	O5031	O	0.620060	-0.208946	0.157416
	O5032	O	0.525040	-0.291562	0.303697
	O5033	O	0.563895	-0.041340	0.221433
	O5034	O	0.521839	-0.041390	0.183064
	O5035	O	0.620036	-0.040998	0.157301
	O5036	O	0.583268	-0.040810	0.216934
	O5037	O	0.626424	-0.291186	0.283829
	O5038	O	0.515111	-0.125316	0.308249
	O5039	O	0.629535	-0.375014	0.150266
	C5040	C	0.609528	-0.286212	0.268682
	C5041	C	0.613821	-0.375332	0.272489
	C5042	C	0.609533	-0.464548	0.268599
	C5043	C	0.601140	-0.464410	0.260946
	C5044	C	0.596841	-0.375115	0.257160
	C5045	C	0.601128	-0.285960	0.261046
	C5046	C	0.587869	-0.375127	0.248737
	C5047	C	0.622866	-0.375451	0.280723
	C5048	C	0.561545	-0.375145	0.254337
	C5049	C	0.553125	-0.375371	0.266124
	C5050	C	0.549062	-0.286493	0.271669
	C5051	C	0.541161	-0.286559	0.282400
	C5052	C	0.537113	-0.375410	0.287916
	C5053	C	0.541188	-0.464322	0.282399
	C5054	C	0.549082	-0.464175	0.271646
	C5055	C	0.528494	-0.375263	0.299340
	C5056	C	0.560341	-0.125185	0.218296
	C5057	C	0.551349	-0.125142	0.209973
	C5058	C	0.547025	-0.036237	0.206149
	C5059	C	0.538624	-0.036415	0.198517
	C5060	C	0.534342	-0.125441	0.194638
	C5061	C	0.538664	-0.214366	0.198481
	C5062	C	0.547056	-0.214084	0.206090
	C5063	C	0.525379	-0.125473	0.186253
	C5064	C	0.586393	-0.125024	0.212010
	C5065	C	0.594265	-0.124752	0.199197
	C5066	C	0.598044	-0.213721	0.193128
	C5067	C	0.605322	-0.213768	0.181258
	C5068	C	0.609062	-0.124812	0.175151
	C5069	C	0.605258	-0.035983	0.181166
	C5070	C	0.597979	-0.035957	0.193045
	C5071	C	0.616927	-0.124737	0.162270
	H5072	H	0.608150	-0.282535	0.176598
	H5073	H	0.595221	-0.282606	0.197786
	H5074	H	0.612809	-0.217228	0.271647
	H5075	H	0.597896	-0.216954	0.258069
	H5076	H	0.573411	-0.375445	0.213016
	H5077	H	0.574732	-0.125277	0.253887
	H5078	H	0.515135	-0.125669	0.297445
	H5079	H	0.629949	-0.375197	0.160935
	H5080	H	0.550310	-0.282803	0.209078
	H5081	H	0.535425	-0.283431	0.195467
	H5082	H	0.538051	-0.217651	0.286531
	H5083	H	0.552085	-0.217622	0.267477
	H5084	H	0.535344	0.032394	0.195566
	H5085	H	0.550255	0.032381	0.209248
	H5086	H	0.552122	-0.532867	0.267365
	H5087	H	0.538116	-0.533118	0.286520
	H5088	H	0.597896	-0.533266	0.257828
	H5089	H	0.612836	-0.533398	0.271439
	H5090	H	0.595130	0.032775	0.197585
	H5091	H	0.608025	0.032558	0.176395
	Al5092	Al	0.574112	-0.000012	0.233531
	Al5093	Al	0.574134	0.249891	0.233435
	Al5094	Al	0.511599	0.249698	0.170975
	Al5095	Al	0.511722	-0.000363	0.170884
	O5096	O	0.584278	0.040862	0.245722
	O5097	O	0.573774	0.125001	0.223767
	O5098	O	0.574475	0.374654	0.243151
	O5099	O	0.626437	0.041018	0.283812
	O5100	O	0.564863	0.040938	0.249854
	O5101	O	0.525070	0.040647	0.303758
	O5102	O	0.564819	0.208997	0.249833
	O5103	O	0.563961	0.290423	0.221226
	O5104	O	0.521808	0.290595	0.183141
	O5105	O	0.584338	0.208846	0.245487
	O5106	O	0.583258	0.290600	0.216920
	O5107	O	0.620043	0.290648	0.157338
	O5108	O	0.525033	0.208232	0.303670
	O5109	O	0.563920	0.458799	0.221376
	O5110	O	0.521790	0.458957	0.183164
	O5111	O	0.620063	0.458852	0.157440
	O5112	O	0.583270	0.458586	0.216877
	O5113	O	0.626386	0.209319	0.283854
	O5114	O	0.515239	0.374941	0.308275
	O5115	O	0.629569	0.125242	0.150224
	C5116	C	0.609511	0.213831	0.268681
	C5117	C	0.613812	0.124811	0.272495
	C5118	C	0.609538	0.035724	0.268575
	C5119	C	0.601145	0.035843	0.260953
	C5120	C	0.596825	0.124893	0.257173
	C5121	C	0.601126	0.213662	0.261050
	C5122	C	0.587854	0.125122	0.248771
	C5123	C	0.622862	0.125143	0.280729
	C5124	C	0.561548	0.124792	0.254449
	C5125	C	0.553095	0.124822	0.266195
	C5126	C	0.549062	0.213625	0.271761
	C5127	C	0.541136	0.213630	0.282477
	C5128	C	0.537062	0.124431	0.287891
	C5129	C	0.541123	0.035536	0.282388
	C5130	C	0.549038	0.035694	0.271649
	C5131	C	0.528474	0.124526	0.299366
	C5132	C	0.560379	0.374658	0.218229
	C5133	C	0.551358	0.374546	0.209942
	C5134	C	0.547084	0.463947	0.206043
	C5135	C	0.538679	0.463958	0.198434
	C5136	C	0.534364	0.374623	0.194627
	C5137	C	0.538638	0.285275	0.198518
	C5138	C	0.547064	0.285191	0.206119
	C5139	C	0.525343	0.374556	0.186321
	C5140	C	0.586409	0.374481	0.211992
	C5141	C	0.594267	0.374200	0.199145
	C5142	C	0.598050	0.285300	0.193149
	C5143	C	0.605355	0.285405	0.181261
	C5144	C	0.609056	0.374417	0.175141
	C5145	C	0.605303	0.463373	0.181173
	C5146	C	0.597995	0.463252	0.193059
	C5147	C	0.616920	0.374540	0.162297
	H5148	H	0.608200	0.216409	0.176694
	H5149	H	0.595309	0.216040	0.197819
	H5150	H	0.612768	0.282671	0.271703
	H5151	H	0.597886	0.282501	0.258000
	H5152	H	0.573434	0.124624	0.213096
	H5153	H	0.574739	0.374646	0.253792
	H5154	H	0.515436	0.374511	0.297463
	H5155	H	0.630198	0.124951	0.160857
	H5156	H	0.550305	0.216229	0.209208
	H5157	H	0.535364	0.216090	0.195518
	H5158	H	0.538170	0.282266	0.286803
	H5159	H	0.552117	0.282374	0.267662
	H5160	H	0.535446	0.533124	0.195397
	H5161	H	0.550333	0.532843	0.209026
	H5162	H	0.552106	-0.033163	0.267433
	H5163	H	0.538086	-0.033654	0.286659
	H5164	H	0.597938	-0.032733	0.257794
	H5165	H	0.612838	-0.032947	0.271491
	H5166	H	0.595176	0.532512	0.197694
	H5167	H	0.608091	0.532700	0.176550
	Al5168	Al	0.577305	-0.500966	0.380764
	Al5169	Al	0.577325	-0.250085	0.380755
	Al5170	Al	0.514854	-0.250741	0.318265
	Al5171	Al	0.514875	-0.499788	0.318264
	O5172	O	0.586796	-0.459563	0.394439
	O5173	O	0.577723	-0.375360	0.370736
	O5174	O	0.576620	-0.125710	0.390736
	O5175	O	0.630344	-0.459206	0.429372
	O5176	O	0.566139	-0.459209	0.393320
	O5177	O	0.516759	-0.458798	0.388000
	O5178	O	0.566108	-0.291124	0.393289
	O5179	O	0.567931	-0.208973	0.366642
	O5180	O	0.524244	-0.209141	0.331972
	O5181	O	0.586736	-0.291554	0.394503
	O5182	O	0.587581	-0.209424	0.366262
	O5183	O	0.627351	-0.208686	0.312410
	O5184	O	0.516801	-0.290739	0.388017
	O5185	O	0.567793	-0.041139	0.366979
	O5186	O	0.524217	-0.041287	0.331985
	O5187	O	0.627348	-0.040588	0.312329
	O5188	O	0.587522	-0.041426	0.366349
	O5189	O	0.630364	-0.291215	0.429258
	O5190	O	0.506208	-0.125200	0.388909
	O5191	O	0.636944	-0.374918	0.305749
	C5192	C	0.612884	-0.285885	0.415319
	C5193	C	0.617433	-0.375343	0.418580
	C5194	C	0.612948	-0.464814	0.415155
	C5195	C	0.604201	-0.464842	0.408484
	C5196	C	0.599692	-0.375329	0.405162
	C5197	C	0.604135	-0.285973	0.408677
	C5198	C	0.590414	-0.375564	0.397456
	C5199	C	0.626721	-0.375310	0.426269
	C5200	C	0.561922	-0.375335	0.393152
	C5201	C	0.551312	-0.375426	0.392493
	C5202	C	0.546340	-0.285539	0.391630
	C5203	C	0.536610	-0.285298	0.389793
	C5204	C	0.531590	-0.375092	0.388814
	C5205	C	0.536576	-0.464996	0.389641
	C5206	C	0.546313	-0.465150	0.391481
	C5207	C	0.520985	-0.374888	0.388109
	C5208	C	0.564208	-0.125127	0.363846
	C5209	C	0.554906	-0.125016	0.356161
	C5210	C	0.550401	-0.035451	0.352739
	C5211	C	0.541649	-0.035433	0.346066
	C5212	C	0.537152	-0.124942	0.342670
	C5213	C	0.541667	-0.214354	0.346062
	C5214	C	0.550420	-0.214398	0.352696
	C5215	C	0.527882	-0.125130	0.334986
	C5216	C	0.590977	-0.125099	0.361938
	C5217	C	0.599607	-0.124837	0.350534
	C5218	C	0.603736	-0.213729	0.345128
	C5219	C	0.611624	-0.213628	0.334356
	C5220	C	0.615620	-0.124632	0.328774
	C5221	C	0.611524	-0.035797	0.334239
	C5222	C	0.603644	-0.035981	0.345019
	C5223	C	0.624043	-0.124677	0.316913
	H5224	H	0.614707	-0.282532	0.330196
	H5225	H	0.600725	-0.282807	0.349342
	H5226	H	0.616243	-0.216112	0.417979
	H5227	H	0.600730	-0.216301	0.406198
	H5228	H	0.578207	-0.375748	0.359940
	H5229	H	0.575294	-0.126088	0.401394
	H5230	H	0.507708	-0.125473	0.378369
	H5231	H	0.637166	-0.374725	0.316471
	H5232	H	0.553783	-0.284187	0.355263
	H5233	H	0.538306	-0.284123	0.343461
	H5234	H	0.532872	-0.215230	0.389192
	H5235	H	0.550070	-0.215443	0.392501
	H5236	H	0.538237	0.034055	0.343494
	H5237	H	0.553762	0.034119	0.355331
	H5238	H	0.550077	-0.535002	0.392197
	H5239	H	0.532831	-0.534815	0.388913
	H5240	H	0.600825	-0.534365	0.405857
	H5241	H	0.616343	-0.534405	0.417654
	H5242	H	0.600525	0.033036	0.349131
	H5243	H	0.614537	0.033327	0.329948
	Al5244	Al	0.577309	-0.000681	0.380952
	Al5245	Al	0.577318	0.250340	0.380789
	Al5246	Al	0.514847	0.249174	0.318282
	Al5247	Al	0.514817	0.000036	0.318234
	O5248	O	0.586714	0.040704	0.394639
	O5249	O	0.577680	0.124420	0.370844
	O5250	O	0.576651	0.374623	0.390711
	O5251	O	0.630396	0.041732	0.429184
	O5252	O	0.566096	0.041074	0.393444
	O5253	O	0.516745	0.041369	0.387936
	O5254	O	0.566090	0.209279	0.393305
	O5255	O	0.567892	0.290756	0.366594
	O5256	O	0.524235	0.290625	0.332050
	O5257	O	0.586706	0.208800	0.394591
	O5258	O	0.587541	0.290125	0.366210
	O5259	O	0.627366	0.290734	0.312346
	O5260	O	0.516748	0.209351	0.388142
	O5261	O	0.567754	0.458816	0.366925
	O5262	O	0.524158	0.458786	0.332181
	O5263	O	0.627377	0.458880	0.312473
	O5264	O	0.587492	0.457905	0.366107
	O5265	O	0.630343	0.209973	0.429317
	O5266	O	0.506177	0.374598	0.388992
	O5267	O	0.636987	0.124901	0.305733
	C5268	C	0.612931	0.215165	0.415177
	C5269	C	0.617441	0.125742	0.418588
	C5270	C	0.612945	0.036033	0.415197
	C5271	C	0.604192	0.035715	0.408582
	C5272	C	0.599694	0.125157	0.405155
	C5273	C	0.604166	0.214995	0.408569
	C5274	C	0.590359	0.124931	0.397559
	C5275	C	0.626743	0.125696	0.426206
	C5276	C	0.561881	0.125164	0.393218
	C5277	C	0.551283	0.125139	0.392436
	C5278	C	0.546271	0.214990	0.391521
	C5279	C	0.536547	0.215067	0.389697
	C5280	C	0.531560	0.125188	0.388755
	C5281	C	0.536562	0.035289	0.389670
	C5282	C	0.546291	0.035334	0.391517
	C5283	C	0.520940	0.125357	0.388190
	C5284	C	0.564179	0.374840	0.363754
	C5285	C	0.554888	0.374897	0.356076
	C5286	C	0.550378	0.464408	0.352662
	C5287	C	0.541625	0.464278	0.346065
	C5288	C	0.537114	0.374837	0.342783
	C5289	C	0.541604	0.285330	0.346151
	C5290	C	0.550371	0.285249	0.352753
	C5291	C	0.527862	0.374654	0.335050
	C5292	C	0.590966	0.374121	0.361832
	C5293	C	0.599639	0.374221	0.350508
	C5294	C	0.603742	0.285480	0.345072
	C5295	C	0.611663	0.285713	0.334358
	C5296	C	0.615692	0.374672	0.328845
	C5297	C	0.611589	0.463494	0.334257
	C5298	C	0.603678	0.463178	0.344994
	C5299	C	0.624080	0.374956	0.316952
	H5300	H	0.614708	0.216800	0.330062
	H5301	H	0.600696	0.216261	0.349289
	H5302	H	0.616270	0.284696	0.417771
	H5303	H	0.600744	0.284529	0.405940
	H5304	H	0.577960	0.124000	0.360017
	H5305	H	0.575381	0.374746	0.401385
	H5306	H	0.507444	0.374627	0.378303
	H5307	H	0.637213	0.125483	0.316460
	H5308	H	0.553736	0.215564	0.355359
	H5309	H	0.538205	0.215797	0.343605
	H5310	H	0.532781	0.285256	0.388970
	H5311	H	0.550030	0.285005	0.392320
	H5312	H	0.538262	0.533963	0.343419
	H5313	H	0.553770	0.534144	0.355165
	H5314	H	0.550047	-0.034585	0.392253
	H5315	H	0.532801	-0.034695	0.388930
	H5316	H	0.600826	-0.034020	0.405976
	H5317	H	0.616325	-0.033545	0.417800
	H5318	H	0.600588	0.532174	0.349128
	H5319	H	0.614564	0.532381	0.329939
	Al5320	Al	0.567564	-0.500193	0.461387
	Al5321	Al	0.567596	-0.250099	0.461508
	Al5322	Al	0.505099	-0.250175	0.398924
	Al5323	Al	0.505081	-0.500191	0.398923
	O5324	O	0.576590	-0.459137	0.476217
	O5325	O	0.568750	-0.375243	0.451470
	O5326	O	0.566320	-0.125387	0.471430
	O5327	O	0.621190	-0.459555	0.508877
	O5328	O	0.555865	-0.459277	0.472320
	O5329	O	0.506689	-0.459680	0.465044
	O5330	O	0.555842	-0.291314	0.472242
	O5331	O	0.558740	-0.208818	0.446354
	O5332	O	0.514052	-0.208872	0.413803
	O5333	O	0.576415	-0.291400	0.476674
	O5334	O	0.579306	-0.209513	0.450574
	O5335	O	0.628610	-0.208837	0.456008
	O5336	O	0.506687	-0.291595	0.464969
	O5337	O	0.558661	-0.040848	0.446413
	O5338	O	0.514043	-0.041098	0.413857
	O5339	O	0.628577	-0.040628	0.455734
	O5340	O	0.579270	-0.041276	0.450537
	O5341	O	0.621120	-0.291483	0.508986
	O5342	O	0.496194	-0.125183	0.465859
	O5343	O	0.639150	-0.374864	0.453289
	C5344	C	0.603371	-0.286045	0.495515
	C5345	C	0.607988	-0.375741	0.498653
	C5346	C	0.603303	-0.465067	0.495618
	C5347	C	0.594330	-0.464927	0.489725
	C5348	C	0.589705	-0.375177	0.486620
	C5349	C	0.594390	-0.285791	0.489623
	C5350	C	0.580225	-0.375265	0.479354
	C5351	C	0.617433	-0.375546	0.506068
	C5352	C	0.551659	-0.375392	0.471949
	C5353	C	0.541088	-0.375486	0.470859
	C5354	C	0.536097	-0.285480	0.469915
	C5355	C	0.526410	-0.285699	0.467712
	C5356	C	0.521458	-0.375597	0.466458
	C5357	C	0.526433	-0.465457	0.467533
	C5358	C	0.536114	-0.465289	0.469744
	C5359	C	0.510891	-0.375679	0.465309
	C5360	C	0.555011	-0.124928	0.443426
	C5361	C	0.545552	-0.125110	0.436058
	C5362	C	0.540928	-0.035289	0.432953
	C5363	C	0.531955	-0.035239	0.427030
	C5364	C	0.527282	-0.124916	0.423987
	C5365	C	0.531893	-0.214696	0.427129
	C5366	C	0.540873	-0.214688	0.433029
	C5367	C	0.517771	-0.124860	0.416707
	C5368	C	0.583476	-0.125187	0.450696
	C5369	C	0.594083	-0.125232	0.451310
	C5370	C	0.599089	-0.214964	0.452223
	C5371	C	0.608808	-0.215029	0.454131
	C5372	C	0.613771	-0.125110	0.455139
	C5373	C	0.608767	-0.035281	0.454225
	C5374	C	0.599047	-0.035256	0.452343
	C5375	C	0.624385	-0.124904	0.455775
	H5376	H	0.612595	-0.284902	0.454821
	H5377	H	0.595365	-0.285010	0.451437
	H5378	H	0.606869	-0.215804	0.497601
	H5379	H	0.590974	-0.215675	0.487206
	H5380	H	0.570281	-0.375333	0.440857
	H5381	H	0.564422	-0.125219	0.481926
	H5382	H	0.497906	-0.124423	0.455321
	H5383	H	0.637826	-0.375075	0.463969
	H5384	H	0.544297	-0.285003	0.435368
	H5385	H	0.528416	-0.284762	0.424929
	H5386	H	0.522655	-0.215644	0.466880
	H5387	H	0.539823	-0.215566	0.470904
	H5388	H	0.528491	0.035089	0.424770
	H5389	H	0.544367	0.034749	0.435220
	H5390	H	0.539845	-0.535308	0.470614
	H5391	H	0.522710	-0.535449	0.466606
	H5392	H	0.590905	-0.534974	0.487436
	H5393	H	0.606767	-0.535273	0.497838
	H5394	H	0.595278	0.034580	0.451640
	H5395	H	0.612510	0.034678	0.454956
	Al5396	Al	0.567551	-0.000127	0.461412
	Al5397	Al	0.567604	0.249658	0.461447
	Al5398	Al	0.505028	0.249954	0.399015
	Al5399	Al	0.505062	-0.000184	0.398922
	O5400	O	0.576481	0.040965	0.476351
	O5401	O	0.568828	0.124560	0.451387
	O5402	O	0.566390	0.375076	0.471395
	O5403	O	0.621163	0.040422	0.508883
	O5404	O	0.555833	0.041168	0.472312
	O5405	O	0.506667	0.040753	0.465080
	O5406	O	0.555859	0.209394	0.472209
	O5407	O	0.558776	0.290888	0.446165
	O5408	O	0.513934	0.290852	0.413984
	O5409	O	0.576417	0.208593	0.476592
	O5410	O	0.579333	0.290280	0.450637
	O5411	O	0.628625	0.290511	0.456026
	O5412	O	0.506654	0.208886	0.464981
	O5413	O	0.558648	0.458821	0.446389
	O5414	O	0.513916	0.458540	0.414067
	O5415	O	0.628600	0.458844	0.455991
	O5416	O	0.579247	0.458420	0.450485
	O5417	O	0.621094	0.208361	0.509119
	O5418	O	0.496089	0.374766	0.465996
	O5419	O	0.639150	0.125029	0.453195
	C5420	C	0.603334	0.214190	0.495536
	C5421	C	0.607973	0.124661	0.498653
	C5422	C	0.603319	0.035140	0.495526
	C5423	C	0.594327	0.035055	0.489661
	C5424	C	0.589696	0.124603	0.486576
	C5425	C	0.594361	0.214216	0.489624
	C5426	C	0.580183	0.124619	0.479353
	C5427	C	0.617422	0.124421	0.506059
	C5428	C	0.551644	0.125231	0.471984
	C5429	C	0.541051	0.125270	0.471055
	C5430	C	0.536094	0.215129	0.469927
	C5431	C	0.526413	0.215010	0.467669
	C5432	C	0.521440	0.125053	0.466529
	C5433	C	0.526411	0.035175	0.467599
	C5434	C	0.536082	0.035189	0.469890
	C5435	C	0.510856	0.124883	0.465391
	C5436	C	0.555023	0.374803	0.443311
	C5437	C	0.545567	0.374597	0.435944
	C5438	C	0.540944	0.464157	0.432765
	C5439	C	0.531936	0.464171	0.426943
	C5440	C	0.527210	0.374673	0.424019
	C5441	C	0.531856	0.285214	0.427125
	C5442	C	0.540857	0.285075	0.432995
	C5443	C	0.517684	0.374709	0.416818
	C5444	C	0.583485	0.374732	0.450722
	C5445	C	0.594108	0.374896	0.451346
	C5446	C	0.599109	0.285129	0.452300
	C5447	C	0.608836	0.284904	0.454166
	C5448	C	0.613820	0.374758	0.455139
	C5449	C	0.608827	0.464580	0.454149
	C5450	C	0.599111	0.464720	0.452264
	C5451	C	0.624428	0.374682	0.455886
	H5452	H	0.612586	0.214847	0.454943
	H5453	H	0.595344	0.215442	0.451624
	H5454	H	0.606824	0.284313	0.497746
	H5455	H	0.590941	0.284472	0.487313
	H5456	H	0.570623	0.124597	0.440834
	H5457	H	0.564712	0.375119	0.481924
	H5458	H	0.497561	0.374748	0.455312
	H5459	H	0.637783	0.124677	0.463816
	H5460	H	0.544262	0.214799	0.435369
	H5461	H	0.528378	0.214995	0.424962
	H5462	H	0.522711	0.285051	0.466725
	H5463	H	0.539811	0.285170	0.470766
	H5464	H	0.528522	0.534297	0.424602
	H5465	H	0.544413	0.534232	0.434950
	H5466	H	0.539828	-0.034681	0.470736
	H5467	H	0.522678	-0.034872	0.466602
	H5468	H	0.590849	-0.034841	0.487369
	H5469	H	0.606756	-0.035168	0.497748
	H5470	H	0.595373	0.534724	0.451556
	H5471	H	0.612595	0.534566	0.454909
	Al5472	Al	0.557397	-0.499689	0.538549
	Al5473	Al	0.557405	-0.249957	0.538602
	Al5474	Al	0.495017	-0.250210	0.475825
	Al5475	Al	0.494912	-0.500211	0.475911
	O5476	O	0.566281	-0.458806	0.553614
	O5477	O	0.558492	-0.374715	0.528558
	O5478	O	0.556312	-0.125000	0.548553
	O5479	O	0.610926	-0.458937	0.586106
	O5480	O	0.545703	-0.458893	0.549549
	O5481	O	0.496371	-0.459173	0.544227
	O5482	O	0.545695	-0.290802	0.549467
	O5483	O	0.548469	-0.208494	0.523540
	O5484	O	0.503812	-0.209122	0.491062
	O5485	O	0.566280	-0.291053	0.553671
	O5486	O	0.569121	-0.209189	0.527751
	O5487	O	0.618275	-0.209434	0.534917
	O5488	O	0.496350	-0.290961	0.544318
	O5489	O	0.548464	-0.040597	0.523567
	O5490	O	0.503826	-0.041381	0.491022
	O5491	O	0.618285	-0.041215	0.535007
	O5492	O	0.569115	-0.040820	0.527649
	O5493	O	0.610984	-0.290965	0.586064
	O5494	O	0.485856	-0.125181	0.546895
	O5495	O	0.628856	-0.375308	0.534065
	C5496	C	0.593058	-0.285283	0.572927
	C5497	C	0.597734	-0.374865	0.575964
	C5498	C	0.593077	-0.464497	0.572947
	C5499	C	0.584096	-0.464742	0.567071
	C5500	C	0.579437	-0.375102	0.563957
	C5501	C	0.584069	-0.285451	0.567058
	C5502	C	0.569970	-0.374900	0.556620
	C5503	C	0.607240	-0.374772	0.583183
	C5504	C	0.541511	-0.374843	0.549324
	C5505	C	0.530873	-0.374983	0.548750
	C5506	C	0.525868	-0.285157	0.547823
	C5507	C	0.516145	-0.285365	0.546006
	C5508	C	0.511166	-0.375263	0.545085
	C5509	C	0.516164	-0.465086	0.546053
	C5510	C	0.525886	-0.464831	0.547892
	C5511	C	0.500547	-0.375135	0.544436
	C5512	C	0.544731	-0.124562	0.520701
	C5513	C	0.535226	-0.124879	0.513425
	C5514	C	0.530555	-0.035386	0.510329
	C5515	C	0.521574	-0.035468	0.504459
	C5516	C	0.516959	-0.125220	0.501361
	C5517	C	0.521592	-0.214773	0.504556
	C5518	C	0.530572	-0.214539	0.510466
	C5519	C	0.507502	-0.125304	0.494000
	C5520	C	0.573322	-0.124969	0.527963
	C5521	C	0.583893	-0.124958	0.529042
	C5522	C	0.588847	-0.214915	0.530257
	C5523	C	0.598516	-0.215144	0.532526
	C5524	C	0.603503	-0.125126	0.533568
	C5525	C	0.598538	-0.035119	0.532400
	C5526	C	0.588850	-0.034905	0.530140
	C5527	C	0.614081	-0.125367	0.534693
	H5528	H	0.602235	-0.285321	0.533457
	H5529	H	0.585097	-0.284891	0.529402
	H5530	H	0.596503	-0.215254	0.575190
	H5531	H	0.580571	-0.215479	0.564837
	H5532	H	0.559873	-0.374388	0.517956
	H5533	H	0.554969	-0.124761	0.559225
	H5534	H	0.487138	-0.125812	0.536225
	H5535	H	0.627322	-0.375651	0.544692
	H5536	H	0.534059	-0.284410	0.512744
	H5537	H	0.518187	-0.285036	0.502248
	H5538	H	0.512366	-0.215494	0.545260
	H5539	H	0.529620	-0.215154	0.548505
	H5540	H	0.518149	0.034667	0.502088
	H5541	H	0.534003	0.034821	0.512493
	H5542	H	0.529644	-0.534700	0.548597
	H5543	H	0.512427	-0.535066	0.545284
	H5544	H	0.580644	-0.534725	0.564876
	H5545	H	0.596561	-0.534553	0.575252
	H5546	H	0.585130	0.035248	0.529180
	H5547	H	0.602265	0.034898	0.533263
	Al5548	Al	0.557384	-0.000070	0.538581
	Al5549	Al	0.557406	0.249939	0.538574
	Al5550	Al	0.494976	0.249985	0.475997
	Al5551	Al	0.494955	0.000049	0.475907
	O5552	O	0.566284	0.041243	0.553662
	O5553	O	0.558550	0.124686	0.528591
	O5554	O	0.556243	0.374964	0.548550
	O5555	O	0.610962	0.041096	0.586097
	O5556	O	0.545717	0.041590	0.549556
	O5557	O	0.496335	0.040915	0.544175
	O5558	O	0.545673	0.209696	0.549436
	O5559	O	0.548495	0.291361	0.523500
	O5560	O	0.503767	0.290955	0.491261
	O5561	O	0.566252	0.208940	0.553691
	O5562	O	0.569104	0.291269	0.527712
	O5563	O	0.618313	0.290302	0.535017
	O5564	O	0.496347	0.209111	0.544264
	O5565	O	0.548491	0.459205	0.523475
	O5566	O	0.503823	0.458740	0.490994
	O5567	O	0.618380	0.458318	0.535120
	O5568	O	0.569128	0.459092	0.527688
	O5569	O	0.610999	0.208873	0.585981
	O5570	O	0.485788	0.374759	0.546847
	O5571	O	0.628810	0.124547	0.534101
	C5572	C	0.593079	0.214557	0.572974
	C5573	C	0.597763	0.125083	0.575999
	C5574	C	0.593058	0.035444	0.573045
	C5575	C	0.584074	0.035563	0.567116
	C5576	C	0.579426	0.125010	0.563997
	C5577	C	0.584082	0.214586	0.567077
	C5578	C	0.569977	0.125189	0.556626
	C5579	C	0.607236	0.124968	0.583226
	C5580	C	0.541493	0.125493	0.549369
	C5581	C	0.530872	0.125317	0.548757
	C5582	C	0.525850	0.215210	0.547950
	C5583	C	0.516136	0.215092	0.546104
	C5584	C	0.511163	0.125222	0.545112
	C5585	C	0.516180	0.035300	0.546015
	C5586	C	0.525899	0.035405	0.547859
	C5587	C	0.500552	0.125018	0.544379
	C5588	C	0.544787	0.375202	0.520628
	C5589	C	0.535262	0.375238	0.513441
	C5590	C	0.530565	0.464840	0.510513
	C5591	C	0.521560	0.464749	0.504674
	C5592	C	0.516964	0.374982	0.501491
	C5593	C	0.521636	0.285482	0.504496
	C5594	C	0.530640	0.285508	0.510330
	C5595	C	0.507505	0.375041	0.494079
	C5596	C	0.573318	0.375100	0.527983
	C5597	C	0.583911	0.374815	0.529035
	C5598	C	0.588883	0.284906	0.530188
	C5599	C	0.598563	0.284865	0.532456
	C5600	C	0.603566	0.374561	0.533614
	C5601	C	0.598595	0.464354	0.532484
	C5602	C	0.588911	0.464401	0.530218
	C5603	C	0.614152	0.374495	0.534720
	H5604	H	0.602289	0.214699	0.533367
	H5605	H	0.585151	0.214843	0.529333
	H5606	H	0.596528	0.284851	0.575219
	H5607	H	0.580662	0.284668	0.564770
	H5608	H	0.560210	0.124664	0.517988
	H5609	H	0.554776	0.375269	0.559245
	H5610	H	0.487096	0.374366	0.536146
	H5611	H	0.627109	0.123982	0.544684
	H5612	H	0.534110	0.215359	0.512526
	H5613	H	0.518196	0.215360	0.502230
	H5614	H	0.512379	0.285086	0.545320
	H5615	H	0.529606	0.285231	0.548659
	H5616	H	0.518057	0.534884	0.502539
	H5617	H	0.533997	0.534949	0.512858
	H5618	H	0.529655	-0.034496	0.548507
	H5619	H	0.512455	-0.034486	0.545134
	H5620	H	0.580614	-0.034619	0.564844
	H5621	H	0.596468	-0.034837	0.575290
	H5622	H	0.585180	0.534564	0.529373
	H5623	H	0.602328	0.534488	0.533419
	Al5624	Al	0.547572	-0.500086	0.619389
	Al5625	Al	0.547647	-0.250786	0.619222
	Al5626	Al	0.485147	-0.249743	0.556809
	Al5627	Al	0.485120	-0.500867	0.556803
	O5628	O	0.557000	-0.458960	0.633498
	O5629	O	0.548332	-0.375548	0.609379
	O5630	O	0.547256	-0.125666	0.629242
	O5631	O	0.600779	-0.458773	0.667816
	O5632	O	0.537374	-0.459035	0.633838
	O5633	O	0.497627	-0.459156	0.687808
	O5634	O	0.537402	-0.291213	0.633844
	O5635	O	0.538279	-0.209373	0.605479
	O5636	O	0.494600	-0.208912	0.570887
	O5637	O	0.557183	-0.290818	0.633139
	O5638	O	0.558838	-0.209355	0.606652
	O5639	O	0.608190	-0.208857	0.612136
	O5640	O	0.497605	-0.290994	0.687782
	O5641	O	0.538236	-0.041135	0.605581
	O5642	O	0.494606	-0.040709	0.570798
	O5643	O	0.608181	-0.040715	0.612001
	O5644	O	0.558831	-0.041006	0.606738
	O5645	O	0.600758	-0.290683	0.667814
	O5646	O	0.487901	-0.125151	0.694424
	O5647	O	0.618758	-0.375136	0.611074
	C5648	C	0.583310	-0.285322	0.653827
	C5649	C	0.587813	-0.374962	0.657224
	C5650	C	0.583301	-0.464595	0.653889
	C5651	C	0.574542	-0.464723	0.647306
	C5652	C	0.570026	-0.375082	0.643906
	C5653	C	0.574552	-0.285377	0.647237
	C5654	C	0.560728	-0.375023	0.636248
	C5655	C	0.597135	-0.374827	0.664897
	C5656	C	0.533954	-0.375116	0.638168
	C5657	C	0.525346	-0.374914	0.649610
	C5658	C	0.521288	-0.285890	0.655078
	C5659	C	0.513387	-0.286063	0.665838
	C5660	C	0.509346	-0.374998	0.671368
	C5661	C	0.513408	-0.463925	0.665910
	C5662	C	0.521300	-0.463784	0.655146
	C5663	C	0.500925	-0.375010	0.683220
	C5664	C	0.534610	-0.125199	0.602528
	C5665	C	0.525331	-0.125157	0.594851
	C5666	C	0.520816	-0.035591	0.591591
	C5667	C	0.512053	-0.035385	0.584991
	C5668	C	0.507562	-0.124888	0.581489
	C5669	C	0.512099	-0.214418	0.584708
	C5670	C	0.520862	-0.214574	0.591287
	C5671	C	0.498216	-0.124478	0.573846
	C5672	C	0.563019	-0.125169	0.606862
	C5673	C	0.573654	-0.124825	0.607475
	C5674	C	0.578645	-0.214647	0.608507
	C5675	C	0.588378	-0.214740	0.610347
	C5676	C	0.593370	-0.124825	0.611181
	C5677	C	0.588375	-0.034959	0.610247
	C5678	C	0.578648	-0.034914	0.608430
	C5679	C	0.603999	-0.124816	0.611881
	H5680	H	0.592152	-0.284818	0.611092
	H5681	H	0.574864	-0.284685	0.607827
	H5682	H	0.586692	-0.215797	0.656392
	H5683	H	0.571186	-0.215599	0.644592
	H5684	H	0.549555	-0.376301	0.598771
	H5685	H	0.546897	-0.125830	0.640038
	H5686	H	0.487588	-0.125177	0.683733
	H5687	H	0.617307	-0.375365	0.621650
	H5688	H	0.524261	-0.284282	0.593738
	H5689	H	0.508728	-0.284169	0.582046
	H5690	H	0.510317	-0.217247	0.670099
	H5691	H	0.524317	-0.216860	0.650858
	H5692	H	0.508652	0.034346	0.582525
	H5693	H	0.524186	0.033891	0.594226
	H5694	H	0.524368	-0.532721	0.650986
	H5695	H	0.510402	-0.533023	0.670116
	H5696	H	0.571187	-0.534602	0.644742
	H5697	H	0.586692	-0.534116	0.656508
	H5698	H	0.574910	0.035061	0.607702
	H5699	H	0.592152	0.034900	0.610887
	Al5700	Al	0.547623	0.000164	0.619335
	Al5701	Al	0.547614	0.249492	0.619256
	Al5702	Al	0.485122	0.250372	0.556800
	Al5703	Al	0.485125	-0.000520	0.556716
	O5704	O	0.557072	0.041208	0.633392
	O5705	O	0.548301	0.124527	0.609386
	O5706	O	0.547201	0.374760	0.629315
	O5707	O	0.600761	0.040865	0.667952
	O5708	O	0.537419	0.040282	0.633884
	O5709	O	0.497590	0.040374	0.687727
	O5710	O	0.537414	0.208093	0.633794
	O5711	O	0.538258	0.290578	0.605486
	O5712	O	0.494598	0.290845	0.570793
	O5713	O	0.557184	0.209597	0.633113
	O5714	O	0.558811	0.291048	0.606643
	O5715	O	0.608195	0.290824	0.611885
	O5716	O	0.497591	0.208561	0.687707
	O5717	O	0.538224	0.458620	0.605516
	O5718	O	0.494607	0.458739	0.570841
	O5719	O	0.608202	0.459070	0.611902
	O5720	O	0.558855	0.459155	0.607017
	O5721	O	0.600829	0.208666	0.667830
	O5722	O	0.488025	0.374772	0.694410
	O5723	O	0.618723	0.124844	0.611073
	C5724	C	0.583296	0.214361	0.654004
	C5725	C	0.587840	0.124810	0.657284
	C5726	C	0.583334	0.035511	0.653810
	C5727	C	0.574583	0.035529	0.647182
	C5728	C	0.570041	0.125255	0.643941
	C5729	C	0.574559	0.214588	0.647377
	C5730	C	0.560742	0.125409	0.636224
	C5731	C	0.597116	0.124950	0.664972
	C5732	C	0.534014	0.124470	0.638209
	C5733	C	0.525421	0.124208	0.649698
	C5734	C	0.521283	0.213283	0.655016
	C5735	C	0.513370	0.213381	0.665733
	C5736	C	0.509375	0.124236	0.671407
	C5737	C	0.513394	0.035190	0.665814
	C5738	C	0.521311	0.035052	0.655084
	C5739	C	0.500951	0.124464	0.683209
	C5740	C	0.534595	0.374374	0.602470
	C5741	C	0.525327	0.374692	0.594791
	C5742	C	0.520810	0.464217	0.591498
	C5743	C	0.512042	0.464366	0.584879
	C5744	C	0.507559	0.374865	0.581398
	C5745	C	0.512052	0.285443	0.584757
	C5746	C	0.520831	0.285373	0.591354
	C5747	C	0.498266	0.374713	0.573783
	C5748	C	0.563056	0.374953	0.606896
	C5749	C	0.573662	0.374740	0.607529
	C5750	C	0.578659	0.285163	0.608438
	C5751	C	0.588386	0.285163	0.610251
	C5752	C	0.593366	0.374990	0.611156
	C5753	C	0.588373	0.464658	0.610232
	C5754	C	0.578649	0.464541	0.608433
	C5755	C	0.603985	0.374967	0.611769
	H5756	H	0.592139	0.215070	0.611015
	H5757	H	0.574928	0.215070	0.607771
	H5758	H	0.586679	0.283998	0.656679
	H5759	H	0.571179	0.284269	0.644868
	H5760	H	0.549645	0.124157	0.598656
	H5761	H	0.547052	0.374651	0.640206
	H5762	H	0.487663	0.374474	0.683735
	H5763	H	0.617161	0.124921	0.621704
	H5764	H	0.524201	0.215531	0.593852
	H5765	H	0.508710	0.216015	0.582161
	H5766	H	0.510277	0.282625	0.669790
	H5767	H	0.524304	0.282078	0.650774
	H5768	H	0.508684	0.534034	0.582374
	H5769	H	0.524174	0.533771	0.594068
	H5770	H	0.524348	-0.033872	0.650874
	H5771	H	0.510314	-0.033896	0.669958
	H5772	H	0.571199	-0.033902	0.644549
	H5773	H	0.586755	-0.033842	0.656293
	H5774	H	0.574908	0.534235	0.607701
	H5775	H	0.592125	0.534675	0.610912
	Al5776	Al	0.550890	-0.500084	0.766580
	Al5777	Al	0.550873	-0.249664	0.766483
	Al5778	Al	0.488348	-0.250065	0.704077
	Al5779	Al	0.488372	-0.500365	0.704176
	O5780	O	0.561105	-0.458963	0.778755
	O5781	O	0.550573	-0.375049	0.756840
	O5782	O	0.551269	-0.124933	0.776160
	O5783	O	0.603260	-0.459211	0.816785
	O5784	O	0.541768	-0.459080	0.783041
	O5785	O	0.504936	-0.459118	0.842590
	O5786	O	0.541780	-0.291231	0.783099
	O5787	O	0.540672	-0.208851	0.754400
	O5788	O	0.498633	-0.209230	0.716082
	O5789	O	0.561170	-0.290798	0.778529
	O5790	O	0.560166	-0.208887	0.750118
	O5791	O	0.599938	-0.209102	0.696126
	O5792	O	0.505013	-0.291005	0.842606
	O5793	O	0.540648	-0.040725	0.754383
	O5794	O	0.498613	-0.041131	0.716119
	O5795	O	0.599903	-0.041475	0.696115
	O5796	O	0.560155	-0.040975	0.750081
	O5797	O	0.603224	-0.291202	0.816873
	O5798	O	0.495470	-0.125163	0.849705
	O5799	O	0.609778	-0.374930	0.691558
	C5800	C	0.586423	-0.285968	0.801449
	C5801	C	0.590682	-0.375233	0.805378
	C5802	C	0.586406	-0.464391	0.801462
	C5803	C	0.578006	-0.464334	0.793858
	C5804	C	0.573725	-0.374933	0.789977
	C5805	C	0.578025	-0.285836	0.793826
	C5806	C	0.564686	-0.374915	0.781764
	C5807	C	0.599682	-0.375157	0.813658
	C5808	C	0.538650	-0.375223	0.788004
	C5809	C	0.530768	-0.375366	0.800832
	C5810	C	0.527031	-0.286473	0.806950
	C5811	C	0.519740	-0.286445	0.818837
	C5812	C	0.515957	-0.375351	0.824824
	C5813	C	0.519681	-0.464179	0.818686
	C5814	C	0.526976	-0.464327	0.806807
	C5815	C	0.508112	-0.375105	0.837696
	C5816	C	0.537122	-0.124861	0.751273
	C5817	C	0.528145	-0.125023	0.742895
	C5818	C	0.523855	-0.035725	0.739066
	C5819	C	0.515465	-0.035936	0.731418
	C5820	C	0.511185	-0.125040	0.727520
	C5821	C	0.515501	-0.214218	0.731272
	C5822	C	0.523886	-0.214228	0.738937
	C5823	C	0.502185	-0.125094	0.719196
	C5824	C	0.563499	-0.124995	0.745557
	C5825	C	0.571899	-0.124970	0.733709
	C5826	C	0.575957	-0.213764	0.728223
	C5827	C	0.583861	-0.213981	0.717453
	C5828	C	0.587904	-0.125193	0.711916
	C5829	C	0.583839	-0.036212	0.717389
	C5830	C	0.575941	-0.036109	0.728161
	C5831	C	0.596494	-0.125286	0.700514
	H5832	H	0.586940	-0.282854	0.713327
	H5833	H	0.572979	-0.282750	0.732492
	H5834	H	0.589682	-0.217113	0.804472
	H5835	H	0.574761	-0.216840	0.790843
	H5836	H	0.550453	-0.375143	0.746147
	H5837	H	0.551661	-0.124268	0.786804
	H5838	H	0.494964	-0.124988	0.839070
	H5839	H	0.609433	-0.375180	0.702370
	H5840	H	0.527171	-0.282825	0.741881
	H5841	H	0.512281	-0.283061	0.728140
	H5842	H	0.517010	-0.217409	0.823513
	H5843	H	0.529878	-0.217808	0.802342
	H5844	H	0.512228	0.032678	0.728406
	H5845	H	0.527120	0.033121	0.742042
	H5846	H	0.529761	-0.533313	0.802170
	H5847	H	0.516880	-0.533201	0.823396
	H5848	H	0.574738	-0.533273	0.790840
	H5849	H	0.589674	-0.533172	0.804414
	H5850	H	0.572911	0.032864	0.732404
	H5851	H	0.586870	0.032546	0.713217
	Al5852	Al	0.550870	0.000173	0.766492
	Al5853	Al	0.550880	0.250239	0.766529
	Al5854	Al	0.488397	0.249847	0.704132
	Al5855	Al	0.488342	-0.000132	0.704120
	O5856	O	0.561140	0.040311	0.778570
	O5857	O	0.550513	0.125101	0.756779
	O5858	O	0.551317	0.374763	0.776243
	O5859	O	0.603204	0.041133	0.816874
	O5860	O	0.541807	0.041070	0.783139
	O5861	O	0.504973	0.040687	0.842557
	O5862	O	0.541736	0.209009	0.783060
	O5863	O	0.540723	0.290732	0.754300
	O5864	O	0.498650	0.290664	0.716122
	O5865	O	0.561125	0.208299	0.778571
	O5866	O	0.560179	0.290948	0.750141
	O5867	O	0.599951	0.291009	0.696128
	O5868	O	0.504986	0.208584	0.842571
	O5869	O	0.540713	0.458744	0.754416
	O5870	O	0.498643	0.458589	0.716191
	O5871	O	0.599986	0.458725	0.696197
	O5872	O	0.560210	0.458932	0.750170
	O5873	O	0.603189	0.209379	0.816863
	O5874	O	0.495489	0.374800	0.849730
	O5875	O	0.609871	0.124747	0.691678
	C5876	C	0.586381	0.213545	0.801393
	C5877	C	0.590660	0.124819	0.805364
	C5878	C	0.586376	0.035777	0.801563
	C5879	C	0.577985	0.035528	0.793881
	C5880	C	0.573726	0.124530	0.789914
	C5881	C	0.578006	0.213388	0.793732
	C5882	C	0.564688	0.124266	0.781694
	C5883	C	0.599667	0.125366	0.813713
	C5884	C	0.538625	0.125071	0.787999
	C5885	C	0.530745	0.124809	0.800819
	C5886	C	0.526998	0.213858	0.806923
	C5887	C	0.519699	0.214014	0.818786
	C5888	C	0.515927	0.124865	0.824781
	C5889	C	0.519680	0.035856	0.818702
	C5890	C	0.526977	0.035851	0.806843
	C5891	C	0.508093	0.124697	0.837643
	C5892	C	0.537161	0.374847	0.751238
	C5893	C	0.528158	0.374721	0.742931
	C5894	C	0.523846	0.463588	0.739125
	C5895	C	0.515455	0.463586	0.731505
	C5896	C	0.511189	0.374555	0.727634
	C5897	C	0.515511	0.285517	0.731388
	C5898	C	0.523900	0.285700	0.739026
	C5899	C	0.502203	0.374379	0.719282
	C5900	C	0.563515	0.375032	0.745589
	C5901	C	0.571912	0.374846	0.733715
	C5902	C	0.575959	0.285887	0.728185
	C5903	C	0.583847	0.285875	0.717389
	C5904	C	0.587918	0.374929	0.711934
	C5905	C	0.583819	0.463695	0.717356
	C5906	C	0.575934	0.463820	0.728140
	C5907	C	0.596544	0.374795	0.700524
	H5908	H	0.586928	0.217069	0.713234
	H5909	H	0.572892	0.216725	0.732407
	H5910	H	0.589626	0.282752	0.804356
	H5911	H	0.574764	0.282184	0.790656
	H5912	H	0.550281	0.125304	0.746039
	H5913	H	0.551825	0.375366	0.786962
	H5914	H	0.495110	0.374896	0.839044
	H5915	H	0.609611	0.124639	0.702445
	H5916	H	0.527159	0.216813	0.741987
	H5917	H	0.512285	0.216707	0.728368
	H5918	H	0.516876	0.283031	0.823481
	H5919	H	0.529820	0.282569	0.802355
	H5920	H	0.512186	0.532428	0.728486
	H5921	H	0.527101	0.532613	0.742131
	H5922	H	0.529782	-0.033267	0.802181
	H5923	H	0.516855	-0.033109	0.823293
	H5924	H	0.574703	-0.032664	0.790961
	H5925	H	0.589614	-0.032798	0.804676
	H5926	H	0.572869	0.532582	0.732258
	H5927	H	0.586885	0.532471	0.713153
	Al5928	Al	0.558530	-0.500069	0.921838
	Al5929	Al	0.558480	-0.250330	0.921921
	Al5930	Al	0.495989	-0.250064	0.859347
	Al5931	Al	0.495993	-0.500189	0.859406
	O5932	O	0.568811	-0.458603	0.933788
	O5933	O	0.558030	-0.375204	0.912196
	O5934	O	0.558950	-0.125003	0.931518
	O5935	O	0.610716	-0.458978	0.972478
	O5936	O	0.549480	-0.459416	0.938617
	O5937	O	0.513015	-0.458961	0.998744
	O5938	O	0.549540	-0.291668	0.938653
	O5939	O	0.548190	-0.209135	0.909939
	O5940	O	0.506274	-0.209153	0.871271
	O5941	O	0.568820	-0.290546	0.933790
	O5942	O	0.567534	-0.209322	0.905189
	O5943	O	0.604286	-0.208974	0.845560
	O5944	O	0.513036	-0.291212	0.998731
	O5945	O	0.548184	-0.040619	0.909978
	O5946	O	0.506282	-0.040924	0.871236
	O5947	O	0.604258	-0.041057	0.845541
	O5948	O	0.567463	-0.041455	0.905033
	O5949	O	0.610743	-0.290735	0.972463
	O5950	O	0.503571	-0.125176	1.005859
	O5951	O	0.613822	-0.375124	0.838666
	C5952	C	0.593959	-0.285522	0.957000
	C5953	C	0.598224	-0.374609	0.960918
	C5954	C	0.593940	-0.463666	0.957044
	C5955	C	0.585575	-0.463830	0.949315
	C5956	C	0.581317	-0.374647	0.945382
	C5957	C	0.585604	-0.285726	0.949281
	C5958	C	0.572346	-0.374605	0.936999
	C5959	C	0.607186	-0.374695	0.969294
	C5960	C	0.546411	-0.375227	0.943610
	C5961	C	0.538575	-0.375313	0.956542
	C5962	C	0.534927	-0.286682	0.962784
	C5963	C	0.527702	-0.286468	0.974777
	C5964	C	0.523917	-0.375077	0.980842
	C5965	C	0.527588	-0.463770	0.974648
	C5966	C	0.534809	-0.463910	0.962667
	C5967	C	0.516104	-0.375151	0.993762
	C5968	C	0.544662	-0.124933	0.906803
	C5969	C	0.535693	-0.124770	0.898383
	C5970	C	0.531379	-0.035599	0.894587
	C5971	C	0.523028	-0.035564	0.886832
	C5972	C	0.518808	-0.125001	0.882798
	C5973	C	0.523117	-0.214232	0.886608
	C5974	C	0.531472	-0.214261	0.894359
	C5975	C	0.509811	-0.125127	0.874389
	C5976	C	0.570597	-0.125410	0.900204
	C5977	C	0.578456	-0.125506	0.887345
	C5978	C	0.582208	-0.214551	0.881219
	C5979	C	0.589493	-0.214447	0.869350
	C5980	C	0.593277	-0.125323	0.863306
	C5981	C	0.589515	-0.036284	0.869406
	C5982	C	0.582231	-0.036349	0.881259
	C5983	C	0.601159	-0.125067	0.850493
	H5984	H	0.592307	-0.283448	0.864670
	H5985	H	0.579412	-0.283538	0.885909
	H5986	H	0.597193	-0.216462	0.960096
	H5987	H	0.582365	-0.216936	0.946302
	H5988	H	0.557499	-0.376173	0.901553
	H5989	H	0.559619	-0.125761	0.942227
	H5990	H	0.503068	-0.125395	0.995164
	H5991	H	0.614209	-0.375205	0.849344
	H5992	H	0.534748	-0.283328	0.897330
	H5993	H	0.519926	-0.283020	0.883441
	H5994	H	0.524963	-0.217649	0.979504
	H5995	H	0.537776	-0.218113	0.958170
	H5996	H	0.519742	0.033311	0.883892
	H5997	H	0.534585	0.033527	0.897768
	H5998	H	0.537571	-0.532460	0.957993
	H5999	H	0.524754	-0.532643	0.979280
	H6000	H	0.582312	-0.532580	0.946286
	H6001	H	0.597192	-0.532484	0.960105
	H6002	H	0.579461	0.032480	0.885953
	H6003	H	0.592356	0.032829	0.864807
	Al6004	Al	0.558452	-0.000111	0.921817
	Al6005	Al	0.558536	0.249709	0.921862
	Al6006	Al	0.495963	0.249812	0.859415
	Al6007	Al	0.495977	-0.000147	0.859326
	O6008	O	0.568836	0.040762	0.933669
	O6009	O	0.558039	0.124951	0.912173
	O6010	O	0.558971	0.375008	0.931513
	O6011	O	0.610668	0.040948	0.972750
	O6012	O	0.549511	0.040934	0.938570
	O6013	O	0.513054	0.040895	0.998690
	O6014	O	0.549529	0.209119	0.938582
	O6015	O	0.548205	0.290901	0.909999
	O6016	O	0.506284	0.290702	0.871267
	O6017	O	0.568837	0.208746	0.933818
	O6018	O	0.567497	0.290875	0.905033
	O6019	O	0.604268	0.291071	0.845479
	O6020	O	0.513068	0.208995	0.998740
	O6021	O	0.548242	0.458874	0.909860
	O6022	O	0.506278	0.458874	0.871276
	O6023	O	0.604297	0.459071	0.845537
	O6024	O	0.567536	0.458883	0.905114
	O6025	O	0.610720	0.208942	0.972526
	O6026	O	0.503578	0.375033	1.005931
	O6027	O	0.613808	0.125079	0.838712
	C6028	C	0.593935	0.213903	0.957069
	C6029	C	0.598193	0.124641	0.961016
	C6030	C	0.593948	0.035521	0.957011
	C6031	C	0.585624	0.035427	0.949210
	C6032	C	0.581355	0.124413	0.945287
	C6033	C	0.585615	0.213681	0.949240
	C6034	C	0.572367	0.124580	0.936914
	C6035	C	0.607156	0.124824	0.969448
	C6036	C	0.546425	0.125057	0.943570
	C6037	C	0.538615	0.125304	0.956519
	C6038	C	0.534906	0.214334	0.962623
	C6039	C	0.527686	0.214296	0.974644
	C6040	C	0.523980	0.125172	0.980795
	C6041	C	0.527657	0.036195	0.974637
	C6042	C	0.534887	0.036275	0.962637
	C6043	C	0.516139	0.125052	0.993725
	C6044	C	0.544669	0.374804	0.906811
	C6045	C	0.535686	0.374672	0.898430
	C6046	C	0.531373	0.463731	0.894630
	C6047	C	0.523020	0.463829	0.886905
	C6048	C	0.518785	0.374891	0.882866
	C6049	C	0.523086	0.285769	0.886710
	C6050	C	0.531433	0.285532	0.894473
	C6051	C	0.509806	0.374822	0.874452
	C6052	C	0.570623	0.374978	0.900129
	C6053	C	0.578492	0.374664	0.887279
	C6054	C	0.582228	0.285850	0.881170
	C6055	C	0.589524	0.286135	0.869256
	C6056	C	0.593280	0.375169	0.863247
	C6057	C	0.589529	0.463928	0.869314
	C6058	C	0.582226	0.463666	0.881207
	C6059	C	0.601155	0.375027	0.850432
	H6060	H	0.592303	0.217315	0.864560
	H6061	H	0.579420	0.216725	0.885768
	H6062	H	0.597161	0.283004	0.960171
	H6063	H	0.582337	0.282551	0.946186
	H6064	H	0.557672	0.123823	0.901425
	H6065	H	0.559335	0.374201	0.942215
	H6066	H	0.503043	0.375150	0.995151
	H6067	H	0.614397	0.125493	0.849378
	H6068	H	0.534676	0.216659	0.897542
	H6069	H	0.519854	0.217066	0.883597
	H6070	H	0.524875	0.283236	0.979274
	H6071	H	0.537670	0.283438	0.957949
	H6072	H	0.519738	0.532457	0.883983
	H6073	H	0.534559	0.532702	0.897805
	H6074	H	0.537651	-0.032767	0.957959
	H6075	H	0.524819	-0.032870	0.979246
	H6076	H	0.582408	-0.033604	0.946123
	H6077	H	0.597196	-0.033614	0.960028
	H6078	H	0.579422	0.532564	0.885863
	H6079	H	0.592312	0.533297	0.864729
	Al6080	Al	0.683484	-0.500016	0.046985
	Al6081	Al	0.683475	-0.250251	0.046937
	Al6082	Al	0.621013	-0.250082	-0.015551
	Al6083	Al	0.621022	-0.500230	-0.015572
	O6084	O	0.693781	-0.459361	0.058935
	O6085	O	0.683017	-0.375220	0.037293
	O6086	O	0.683979	-0.125162	0.056635
	O6087	O	0.735724	-0.459228	0.097583
	O6088	O	0.674516	-0.458890	0.063833
	O6089	O	0.638017	-0.459193	0.123793
	O6090	O	0.674519	-0.290960	0.063755
	O6091	O	0.673199	-0.209212	0.035001
	O6092	O	0.631321	-0.209015	-0.003638
	O6093	O	0.693770	-0.291617	0.058826
	O6094	O	0.692491	-0.209096	0.030114
	O6095	O	0.729280	-0.209211	-0.029458
	O6096	O	0.637921	-0.291151	0.123741
	O6097	O	0.673247	-0.041167	0.035038
	O6098	O	0.631298	-0.040832	-0.003559
	O6099	O	0.729260	-0.041164	-0.029423
	O6100	O	0.692488	-0.041110	0.030136
	O6101	O	0.735719	-0.291244	0.097558
	O6102	O	0.628545	-0.124972	0.130941
	O6103	O	0.738720	-0.375346	-0.036286
	C6104	C	0.718970	-0.286268	0.081955
	C6105	C	0.723203	-0.375030	0.085955
	C6106	C	0.718911	-0.463783	0.082124
	C6107	C	0.710546	-0.463846	0.074395
	C6108	C	0.706313	-0.375106	0.070374
	C6109	C	0.710592	-0.286344	0.074226
	C6110	C	0.697297	-0.375490	0.062077
	C6111	C	0.732159	-0.375355	0.094395
	C6112	C	0.671405	-0.374776	0.068755
	C6113	C	0.663589	-0.374615	0.081680
	C6114	C	0.659845	-0.285543	0.087757
	C6115	C	0.652590	-0.285708	0.099700
	C6116	C	0.648884	-0.374648	0.105825
	C6117	C	0.652665	-0.463569	0.099784
	C6118	C	0.659911	-0.463426	0.087848
	C6119	C	0.641048	-0.374969	0.118749
	C6120	C	0.669690	-0.124991	0.031825
	C6121	C	0.660704	-0.125132	0.023450
	C6122	C	0.656447	-0.036071	0.019478
	C6123	C	0.648081	-0.035790	0.011818
	C6124	C	0.643806	-0.125100	0.007934
	C6125	C	0.648061	-0.214312	0.011898
	C6126	C	0.656433	-0.214394	0.019575
	C6127	C	0.634830	-0.125114	-0.000441
	C6128	C	0.695632	-0.125185	0.025212
	C6129	C	0.703456	-0.125140	0.012350
	C6130	C	0.707184	-0.214203	0.006215
	C6131	C	0.714481	-0.214229	-0.005678
	C6132	C	0.718262	-0.125201	-0.011704
	C6133	C	0.714513	-0.036148	-0.005615
	C6134	C	0.707218	-0.036130	0.006275
	C6135	C	0.726138	-0.125411	-0.024475
	H6136	H	0.717285	-0.283193	-0.010267
	H6137	H	0.704387	-0.283497	0.010824
	H6138	H	0.722201	-0.217456	0.085016
	H6139	H	0.707315	-0.217783	0.071212
	H6140	H	0.682477	-0.374915	0.026659
	H6141	H	0.684441	-0.125674	0.067284
	H6142	H	0.627975	-0.125227	0.120252
	H6143	H	0.739012	-0.375943	-0.025569
	H6144	H	0.659679	-0.283231	0.022650
	H6145	H	0.644800	-0.282899	0.008812
	H6146	H	0.649761	-0.216680	0.104324
	H6147	H	0.662652	-0.216494	0.083079
	H6148	H	0.644867	0.033086	0.008703
	H6149	H	0.659720	0.032929	0.022481
	H6150	H	0.662740	-0.532482	0.083295
	H6151	H	0.649866	-0.532464	0.104478
	H6152	H	0.707287	-0.533016	0.071537
	H6153	H	0.722078	-0.532405	0.085283
	H6154	H	0.704430	0.032870	0.010982
	H6155	H	0.717354	0.033126	-0.010142
	Al6156	Al	0.683489	-0.000129	0.046998
	Al6157	Al	0.683494	0.249907	0.046916
	Al6158	Al	0.620995	0.249608	-0.015518
	Al6159	Al	0.621025	-0.000218	-0.015472
	O6160	O	0.693788	0.041074	0.058865
	O6161	O	0.683064	0.124707	0.037287
	O6162	O	0.683921	0.374796	0.056664
	O6163	O	0.735628	0.040781	0.097657
	O6164	O	0.674533	0.040812	0.063751
	O6165	O	0.637997	0.040927	0.123801
	O6166	O	0.674512	0.209026	0.063819
	O6167	O	0.673192	0.290603	0.034986
	O6168	O	0.631296	0.290959	-0.003628
	O6169	O	0.693826	0.209075	0.058764
	O6170	O	0.692482	0.290598	0.030104
	O6171	O	0.729214	0.290865	-0.029441
	O6172	O	0.637971	0.208980	0.123654
	O6173	O	0.673172	0.458900	0.035108
	O6174	O	0.631262	0.458788	-0.003613
	O6175	O	0.729247	0.458696	-0.029444
	O6176	O	0.692477	0.458529	0.030204
	O6177	O	0.735720	0.208972	0.097478
	O6178	O	0.628534	0.374836	0.130938
	O6179	O	0.738723	0.124828	-0.036318
	C6180	C	0.718959	0.214231	0.081951
	C6181	C	0.723176	0.125096	0.085992
	C6182	C	0.718882	0.036054	0.082158
	C6183	C	0.710538	0.035820	0.074382
	C6184	C	0.706336	0.125024	0.070336
	C6185	C	0.710634	0.213986	0.074172
	C6186	C	0.697347	0.125099	0.061947
	C6187	C	0.732145	0.124883	0.094358
	C6188	C	0.671431	0.124743	0.068751
	C6189	C	0.663603	0.124833	0.081699
	C6190	C	0.659855	0.213956	0.087761
	C6191	C	0.652603	0.213836	0.099703
	C6192	C	0.648919	0.124775	0.105873
	C6193	C	0.652656	0.035645	0.099824
	C6194	C	0.659909	0.035840	0.087882
	C6195	C	0.641067	0.124900	0.118745
	C6196	C	0.669656	0.374734	0.031881
	C6197	C	0.660663	0.374788	0.023559
	C6198	C	0.656397	0.463921	0.019651
	C6199	C	0.648061	0.463839	0.011865
	C6200	C	0.643805	0.374885	0.007907
	C6201	C	0.648057	0.285518	0.011831
	C6202	C	0.656396	0.285689	0.019626
	C6203	C	0.634827	0.374899	-0.000484
	C6204	C	0.695592	0.374817	0.025211
	C6205	C	0.703432	0.374925	0.012331
	C6206	C	0.707228	0.286135	0.006315
	C6207	C	0.714526	0.286074	-0.005552
	C6208	C	0.718240	0.375106	-0.011678
	C6209	C	0.714455	0.464018	-0.005651
	C6210	C	0.707155	0.464004	0.006236
	C6211	C	0.726109	0.374777	-0.024528
	H6212	H	0.717360	0.216928	-0.010221
	H6213	H	0.704462	0.216909	0.010997
	H6214	H	0.722229	0.283005	0.084875
	H6215	H	0.707456	0.282911	0.071006
	H6216	H	0.682733	0.124445	0.026600
	H6217	H	0.684362	0.373969	0.067373
	H6218	H	0.628068	0.374980	0.120129
	H6219	H	0.739036	0.125105	-0.025529
	H6220	H	0.659645	0.216577	0.022620
	H6221	H	0.644831	0.216619	0.008712
	H6222	H	0.649754	0.282795	0.104304
	H6223	H	0.662586	0.282979	0.083026
	H6224	H	0.644838	0.532836	0.008758
	H6225	H	0.659640	0.533014	0.022684
	H6226	H	0.662696	-0.033032	0.083201
	H6227	H	0.649873	-0.033306	0.104492
	H6228	H	0.707268	-0.032794	0.071400
	H6229	H	0.722092	-0.032700	0.085282
	H6230	H	0.704321	0.532913	0.010873
	H6231	H	0.717214	0.532958	-0.010320
	Al6232	Al	0.691523	-0.500269	0.203117
	Al6233	Al	0.691539	-0.250223	0.203115
	Al6234	Al	0.629033	-0.250121	0.140623
	Al6235	Al	0.629028	-0.499982	0.140625
	O6236	O	0.701820	-0.458875	0.215068
	O6237	O	0.691002	-0.374995	0.193501
	O6238	O	0.691971	-0.125344	0.212719
	O6239	O	0.743713	-0.459357	0.253812
	O6240	O	0.682525	-0.459228	0.219905
	O6241	O	0.645767	-0.459016	0.279536
	O6242	O	0.682490	-0.291129	0.219855
	O6243	O	0.681250	-0.208832	0.191221
	O6244	O	0.639339	-0.209003	0.152419
	O6245	O	0.701791	-0.290729	0.215067
	O6246	O	0.700485	-0.209181	0.186305
	O6247	O	0.736957	-0.208932	0.126209
	O6248	O	0.645758	-0.291036	0.279442
	O6249	O	0.681250	-0.040635	0.191138
	O6250	O	0.639338	-0.040691	0.152555
	O6251	O	0.737016	-0.041012	0.126340
	O6252	O	0.700552	-0.041092	0.186362
	O6253	O	0.743808	-0.291117	0.253667
	O6254	O	0.636236	-0.124962	0.286279
	O6255	O	0.746512	-0.375230	0.119183
	C6256	C	0.726940	-0.285826	0.238332
	C6257	C	0.731244	-0.374822	0.242152
	C6258	C	0.726986	-0.463807	0.238194
	C6259	C	0.718626	-0.463899	0.230484
	C6260	C	0.714342	-0.374902	0.226599
	C6261	C	0.718571	-0.285882	0.230621
	C6262	C	0.705347	-0.374769	0.218202
	C6263	C	0.740230	-0.375158	0.250551
	C6264	C	0.679392	-0.375241	0.224815
	C6265	C	0.671558	-0.375298	0.237717
	C6266	C	0.667824	-0.286351	0.243778
	C6267	C	0.660536	-0.286299	0.255675
	C6268	C	0.656775	-0.375141	0.261763
	C6269	C	0.660534	-0.464062	0.255752
	C6270	C	0.667809	-0.464181	0.243838
	C6271	C	0.648900	-0.374922	0.274597
	C6272	C	0.677724	-0.124905	0.187991
	C6273	C	0.668719	-0.124960	0.179688
	C6274	C	0.664453	-0.035623	0.175748
	C6275	C	0.656099	-0.035629	0.168004
	C6276	C	0.651842	-0.125006	0.164067
	C6277	C	0.656107	-0.214370	0.167998
	C6278	C	0.664454	-0.214337	0.175761
	C6279	C	0.642888	-0.124933	0.155616
	C6280	C	0.703595	-0.125013	0.181375
	C6281	C	0.711451	-0.125122	0.168474
	C6282	C	0.715120	-0.213876	0.162261
	C6283	C	0.722348	-0.213995	0.150280
	C6284	C	0.726091	-0.125115	0.144218
	C6285	C	0.722386	-0.036251	0.150372
	C6286	C	0.715154	-0.036156	0.162353
	C6287	C	0.733916	-0.124957	0.131266
	H6288	H	0.725115	-0.282856	0.145563
	H6289	H	0.712287	-0.282664	0.166887
	H6290	H	0.730147	-0.216808	0.241467
	H6291	H	0.715283	-0.217107	0.227705
	H6292	H	0.690476	-0.375382	0.182810
	H6293	H	0.692412	-0.125384	0.223363
	H6294	H	0.635781	-0.124912	0.275603
	H6295	H	0.747010	-0.375567	0.129824
	H6296	H	0.667722	-0.283335	0.178763
	H6297	H	0.652873	-0.283200	0.164901
	H6298	H	0.657730	-0.217259	0.260326
	H6299	H	0.670612	-0.217317	0.239140
	H6300	H	0.652901	0.033475	0.164855
	H6301	H	0.667749	0.033446	0.178661
	H6302	H	0.670609	-0.533129	0.239211
	H6303	H	0.657746	-0.532899	0.260435
	H6304	H	0.715397	-0.532569	0.227457
	H6305	H	0.730268	-0.532689	0.241214
	H6306	H	0.712363	0.032493	0.167030
	H6307	H	0.725187	0.032624	0.145677
	Al6308	Al	0.691559	-0.000304	0.203089
	Al6309	Al	0.691540	0.249733	0.203076
	Al6310	Al	0.629018	0.249840	0.140571
	Al6311	Al	0.629016	0.000008	0.140615
	O6312	O	0.701849	0.040774	0.214947
	O6313	O	0.691068	0.124697	0.193408
	O6314	O	0.692075	0.374758	0.212781
	O6315	O	0.743695	0.040862	0.253786
	O6316	O	0.682567	0.040946	0.219898
	O6317	O	0.645763	0.040718	0.279452
	O6318	O	0.682534	0.208960	0.219880
	O6319	O	0.681243	0.290805	0.191229
	O6320	O	0.639331	0.291041	0.152478
	O6321	O	0.701885	0.208913	0.214900
	O6322	O	0.700489	0.290762	0.186235
	O6323	O	0.736986	0.291101	0.126223
	O6324	O	0.645732	0.208830	0.279457
	O6325	O	0.681218	0.459007	0.191248
	O6326	O	0.639288	0.459175	0.152587
	O6327	O	0.737058	0.458916	0.126298
	O6328	O	0.700502	0.459112	0.186352
	O6329	O	0.743785	0.208861	0.253706
	O6330	O	0.636250	0.375104	0.286313
	O6331	O	0.746430	0.125070	0.119159
	C6332	C	0.726920	0.213874	0.238362
	C6333	C	0.731205	0.125068	0.242253
	C6334	C	0.726994	0.035883	0.238219
	C6335	C	0.718654	0.035787	0.230426
	C6336	C	0.714357	0.124636	0.226581
	C6337	C	0.718581	0.213511	0.230594
	C6338	C	0.705390	0.124798	0.218150
	C6339	C	0.740195	0.125004	0.250629
	C6340	C	0.679432	0.124795	0.224780
	C6341	C	0.671595	0.125007	0.237694
	C6342	C	0.667836	0.213982	0.243742
	C6343	C	0.660532	0.213822	0.255666
	C6344	C	0.656777	0.124750	0.261730
	C6345	C	0.660543	0.035977	0.255671
	C6346	C	0.667853	0.036054	0.243768
	C6347	C	0.648905	0.124698	0.274530
	C6348	C	0.677706	0.374967	0.188053
	C6349	C	0.668735	0.374590	0.179635
	C6350	C	0.664466	0.463827	0.175729
	C6351	C	0.656102	0.464077	0.167987
	C6352	C	0.651832	0.374800	0.164072
	C6353	C	0.656091	0.285499	0.167970
	C6354	C	0.664463	0.285278	0.175700
	C6355	C	0.642839	0.375110	0.155711
	C6356	C	0.703563	0.374839	0.181301
	C6357	C	0.711382	0.375164	0.168351
	C6358	C	0.715118	0.286083	0.162267
	C6359	C	0.722368	0.286198	0.150319
	C6360	C	0.726063	0.375132	0.144134
	C6361	C	0.722384	0.464120	0.150333
	C6362	C	0.715145	0.464153	0.162317
	C6363	C	0.733955	0.375180	0.131192
	H6364	H	0.725230	0.217398	0.145740
	H6365	H	0.712361	0.216985	0.166967
	H6366	H	0.730117	0.282865	0.241485
	H6367	H	0.715319	0.281986	0.227605
	H6368	H	0.690535	0.124230	0.182658
	H6369	H	0.692584	0.374489	0.223476
	H6370	H	0.635920	0.375449	0.275588
	H6371	H	0.747018	0.125192	0.129845
	H6372	H	0.667688	0.216391	0.178751
	H6373	H	0.652836	0.216447	0.164963
	H6374	H	0.657755	0.282859	0.260313
	H6375	H	0.670633	0.282984	0.239069
	H6376	H	0.652867	0.533219	0.164971
	H6377	H	0.667714	0.533024	0.178789
	H6378	H	0.670638	-0.033370	0.239098
	H6379	H	0.657749	-0.033302	0.260292
	H6380	H	0.715446	-0.032955	0.227294
	H6381	H	0.730284	-0.032711	0.241186
	H6382	H	0.712390	0.533001	0.167064
	H6383	H	0.725220	0.533025	0.145719
	Al6384	Al	0.699136	-0.500045	0.358568
	Al6385	Al	0.699148	-0.249989	0.358447
	Al6386	Al	0.636613	-0.250155	0.296032
	Al6387	Al	0.636630	-0.500139	0.296082
	O6388	O	0.709268	-0.459264	0.370815
	O6389	O	0.698728	-0.375154	0.348841
	O6390	O	0.699444	-0.125060	0.368239
	O6391	O	0.751415	-0.459227	0.408868
	O6392	O	0.689885	-0.458806	0.374934
	O6393	O	0.650063	-0.459022	0.428836
	O6394	O	0.689821	-0.290964	0.374828
	O6395	O	0.688941	-0.209106	0.346303
	O6396	O	0.646816	-0.209304	0.308118
	O6397	O	0.709314	-0.291131	0.370633
	O6398	O	0.708249	-0.209062	0.341938
	O6399	O	0.745044	-0.209275	0.282353
	O6400	O	0.650073	-0.291459	0.428844
	O6401	O	0.688905	-0.040966	0.346427
	O6402	O	0.646806	-0.041109	0.308214
	O6403	O	0.745067	-0.041308	0.282447
	O6404	O	0.708298	-0.041117	0.342062
	O6405	O	0.751366	-0.290828	0.408946
	O6406	O	0.640213	-0.125094	0.433326
	O6407	O	0.754602	-0.374713	0.275292
	C6408	C	0.734525	-0.286144	0.393675
	C6409	C	0.738823	-0.375339	0.397543
	C6410	C	0.734514	-0.464528	0.393746
	C6411	C	0.726105	-0.464419	0.386139
	C6412	C	0.721829	-0.375154	0.382261
	C6413	C	0.726140	-0.285999	0.386050
	C6414	C	0.712836	-0.375264	0.373857
	C6415	C	0.747849	-0.375029	0.405812
	C6416	C	0.686545	-0.374712	0.379449
	C6417	C	0.678127	-0.375228	0.391278
	C6418	C	0.674098	-0.286357	0.396857
	C6419	C	0.666198	-0.286367	0.407628
	C6420	C	0.662123	-0.375270	0.413064
	C6421	C	0.666168	-0.464160	0.407516
	C6422	C	0.674061	-0.464098	0.396742
	C6423	C	0.653516	-0.375297	0.424499
	C6424	C	0.685361	-0.125213	0.343299
	C6425	C	0.676331	-0.125217	0.335001
	C6426	C	0.671986	-0.036137	0.331271
	C6427	C	0.663592	-0.036019	0.323638
	C6428	C	0.659350	-0.125129	0.319684
	C6429	C	0.663692	-0.214294	0.323394
	C6430	C	0.672093	-0.214281	0.331013
	C6431	C	0.650347	-0.125058	0.311331
	C6432	C	0.711405	-0.124848	0.337053
	C6433	C	0.719277	-0.124974	0.324253
	C6434	C	0.723030	-0.214005	0.318204
	C6435	C	0.730326	-0.214266	0.306301
	C6436	C	0.734074	-0.125359	0.300199
	C6437	C	0.730326	-0.036345	0.306273
	C6438	C	0.723025	-0.036123	0.318165
	C6439	C	0.741933	-0.125202	0.287318
	H6440	H	0.733151	-0.283173	0.301701
	H6441	H	0.720194	-0.282999	0.322831
	H6442	H	0.737796	-0.217291	0.396630
	H6443	H	0.722891	-0.217132	0.383011
	H6444	H	0.698176	-0.375268	0.338151
	H6445	H	0.699610	-0.125703	0.378880
	H6446	H	0.640718	-0.125282	0.422541
	H6447	H	0.755357	-0.374770	0.285870
	H6448	H	0.675379	-0.283224	0.333896
	H6449	H	0.660490	-0.283298	0.320257
	H6450	H	0.663173	-0.217278	0.411842
	H6451	H	0.677158	-0.217189	0.392681
	H6452	H	0.660285	0.032781	0.320765
	H6453	H	0.675211	0.032706	0.334378
	H6454	H	0.677085	-0.533155	0.392457
	H6455	H	0.663111	-0.533183	0.411646
	H6456	H	0.722857	-0.533488	0.383113
	H6457	H	0.737772	-0.533791	0.396736
	H6458	H	0.720195	0.033059	0.322713
	H6459	H	0.733129	0.032614	0.301626
	Al6460	Al	0.699146	0.000138	0.358604
	Al6461	Al	0.699156	0.250041	0.358461
	Al6462	Al	0.636647	0.249681	0.295954
	Al6463	Al	0.636640	0.000037	0.296020
	O6464	O	0.709310	0.040987	0.370733
	O6465	O	0.698735	0.124812	0.348817
	O6466	O	0.699441	0.374764	0.368269
	O6467	O	0.751318	0.040708	0.409091
	O6468	O	0.689886	0.041166	0.374974
	O6469	O	0.650068	0.040823	0.428798
	O6470	O	0.689849	0.209098	0.374830
	O6471	O	0.688953	0.290941	0.346292
	O6472	O	0.646824	0.290466	0.308141
	O6473	O	0.709337	0.209120	0.370603
	O6474	O	0.708260	0.290978	0.341918
	O6475	O	0.745022	0.290892	0.282341
	O6476	O	0.650041	0.208586	0.428730
	O6477	O	0.688878	0.459060	0.346536
	O6478	O	0.646801	0.458718	0.308227
	O6479	O	0.745064	0.458705	0.282448
	O6480	O	0.708279	0.459003	0.342055
	O6481	O	0.751392	0.208871	0.408879
	O6482	O	0.640153	0.374946	0.433346
	O6483	O	0.754525	0.125086	0.275357
	C6484	C	0.734488	0.214184	0.393754
	C6485	C	0.738776	0.124875	0.397615
	C6486	C	0.734478	0.035643	0.393770
	C6487	C	0.726093	0.035691	0.386102
	C6488	C	0.721827	0.124918	0.382210
	C6489	C	0.726115	0.214242	0.386057
	C6490	C	0.712865	0.125066	0.373812
	C6491	C	0.747797	0.124869	0.405893
	C6492	C	0.686549	0.125294	0.379457
	C6493	C	0.678141	0.125006	0.391335
	C6494	C	0.674048	0.213757	0.396784
	C6495	C	0.666141	0.213659	0.407531
	C6496	C	0.662130	0.124689	0.413022
	C6497	C	0.666232	0.035806	0.407605
	C6498	C	0.674135	0.035943	0.396868
	C6499	C	0.653473	0.124641	0.424434
	C6500	C	0.685348	0.375015	0.343324
	C6501	C	0.676332	0.374906	0.334998
	C6502	C	0.671984	0.463761	0.331176
	C6503	C	0.663592	0.463611	0.323573
	C6504	C	0.659359	0.374472	0.319650
	C6505	C	0.663698	0.285338	0.323442
	C6506	C	0.672104	0.285505	0.331063
	C6507	C	0.650334	0.374501	0.311361
	C6508	C	0.711392	0.375159	0.337056
	C6509	C	0.719303	0.375311	0.324301
	C6510	C	0.723051	0.286557	0.318239
	C6511	C	0.730341	0.286408	0.306371
	C6512	C	0.734071	0.374947	0.300231
	C6513	C	0.730346	0.463785	0.306323
	C6514	C	0.723063	0.464010	0.318213
	C6515	C	0.741920	0.374848	0.287333
	H6516	H	0.733139	0.217284	0.301727
	H6517	H	0.720240	0.217504	0.322864
	H6518	H	0.737730	0.283114	0.396810
	H6519	H	0.722860	0.283361	0.383014
	H6520	H	0.698235	0.124946	0.338169
	H6521	H	0.699612	0.374643	0.378972
	H6522	H	0.640300	0.375432	0.422486
	H6523	H	0.755096	0.124498	0.286011
	H6524	H	0.675373	0.216751	0.334126
	H6525	H	0.660477	0.216363	0.320366
	H6526	H	0.663051	0.282525	0.411711
	H6527	H	0.677039	0.282770	0.392484
	H6528	H	0.660286	0.532342	0.320662
	H6529	H	0.675156	0.532748	0.334270
	H6530	H	0.677204	-0.033029	0.392661
	H6531	H	0.663210	-0.032952	0.411815
	H6532	H	0.722846	-0.033496	0.383056
	H6533	H	0.737720	-0.033146	0.396829
	H6534	H	0.720237	0.533216	0.322850
	H6535	H	0.733149	0.532535	0.301653
	Al6536	Al	0.702308	-0.500431	0.505992
	Al6537	Al	0.702276	-0.249723	0.505953
	Al6538	Al	0.639816	-0.250651	0.443327
	Al6539	Al	0.639825	-0.499617	0.443471
	O6540	O	0.711676	-0.458842	0.519720
	O6541	O	0.702622	-0.375197	0.496016
	O6542	O	0.701610	-0.125060	0.515913
	O6543	O	0.755404	-0.458868	0.554203
	O6544	O	0.691090	-0.458907	0.518575
	O6545	O	0.641718	-0.459512	0.513137
	O6546	O	0.691014	-0.290600	0.518426
	O6547	O	0.692829	-0.209150	0.491952
	O6548	O	0.649196	-0.209541	0.457148
	O6549	O	0.711666	-0.290765	0.519704
	O6550	O	0.712546	-0.209303	0.491465
	O6551	O	0.752316	-0.208919	0.437414
	O6552	O	0.641690	-0.291333	0.513165
	O6553	O	0.692819	-0.040930	0.492004
	O6554	O	0.649232	-0.041349	0.457053
	O6555	O	0.752321	-0.040906	0.437501
	O6556	O	0.712515	-0.041575	0.491458
	O6557	O	0.755290	-0.290754	0.554425
	O6558	O	0.631140	-0.125446	0.514121
	O6559	O	0.761964	-0.374928	0.430731
	C6560	C	0.737884	-0.285390	0.540227
	C6561	C	0.742374	-0.374882	0.543660
	C6562	C	0.737900	-0.464419	0.540288
	C6563	C	0.729127	-0.464409	0.533677
	C6564	C	0.724631	-0.374813	0.530318
	C6565	C	0.729127	-0.285336	0.533597
	C6566	C	0.715307	-0.374975	0.522683
	C6567	C	0.751693	-0.374874	0.551350
	C6568	C	0.686844	-0.375060	0.518422
	C6569	C	0.676234	-0.375363	0.517626
	C6570	C	0.671249	-0.285433	0.516750
	C6571	C	0.661524	-0.285411	0.514891
	C6572	C	0.656532	-0.375131	0.513965
	C6573	C	0.661518	-0.464921	0.514798
	C6574	C	0.671246	-0.464958	0.516650
	C6575	C	0.645906	-0.375322	0.513325
	C6576	C	0.689162	-0.124890	0.488961
	C6577	C	0.679891	-0.125011	0.481235
	C6578	C	0.675355	-0.035432	0.477921
	C6579	C	0.666606	-0.035540	0.471274
	C6580	C	0.662149	-0.125090	0.467757
	C6581	C	0.666686	-0.214625	0.471041
	C6582	C	0.675429	-0.214513	0.477704
	C6583	C	0.652874	-0.125390	0.460059
	C6584	C	0.715944	-0.125289	0.487085
	C6585	C	0.724564	-0.125388	0.475637
	C6586	C	0.728659	-0.214040	0.470177
	C6587	C	0.736568	-0.213766	0.459429
	C6588	C	0.740585	-0.125003	0.453874
	C6589	C	0.736531	-0.036248	0.459435
	C6590	C	0.728624	-0.036480	0.470167
	C6591	C	0.749019	-0.125091	0.442033
	H6592	H	0.739657	-0.282733	0.455301
	H6593	H	0.725627	-0.282866	0.474383
	H6594	H	0.741212	-0.215698	0.542866
	H6595	H	0.725747	-0.215715	0.531066
	H6596	H	0.702849	-0.375856	0.485208
	H6597	H	0.700317	-0.125105	0.526582
	H6598	H	0.632700	-0.125600	0.503542
	H6599	H	0.762295	-0.374773	0.441447
	H6600	H	0.678819	-0.284221	0.480235
	H6601	H	0.663340	-0.284137	0.468320
	H6602	H	0.657783	-0.215559	0.514026
	H6603	H	0.674990	-0.215238	0.517373
	H6604	H	0.663218	0.033935	0.468753
	H6605	H	0.678698	0.034365	0.480599
	H6606	H	0.675036	-0.534644	0.517229
	H6607	H	0.657814	-0.534619	0.513871
	H6608	H	0.725736	-0.534076	0.531162
	H6609	H	0.741245	-0.534240	0.542957
	H6610	H	0.725555	0.031986	0.474341
	H6611	H	0.739590	0.032642	0.455250
	Al6612	Al	0.702273	-0.000675	0.506026
	Al6613	Al	0.702304	0.250364	0.505971
	Al6614	Al	0.639868	0.249656	0.443332
	Al6615	Al	0.639819	0.000476	0.443279
	O6616	O	0.711651	0.040910	0.519806
	O6617	O	0.702648	0.124705	0.496055
	O6618	O	0.701665	0.374977	0.515886
	O6619	O	0.755300	0.040897	0.554472
	O6620	O	0.691096	0.041709	0.518706
	O6621	O	0.641707	0.040651	0.513241
	O6622	O	0.691037	0.209941	0.518509
	O6623	O	0.692864	0.290905	0.491873
	O6624	O	0.649245	0.290655	0.457119
	O6625	O	0.711748	0.208875	0.519661
	O6626	O	0.712525	0.291129	0.491394
	O6627	O	0.752297	0.291017	0.437435
	O6628	O	0.641739	0.208918	0.513147
	O6629	O	0.692768	0.458813	0.492079
	O6630	O	0.649166	0.458605	0.457254
	O6631	O	0.752327	0.459043	0.437519
	O6632	O	0.712572	0.458984	0.491490
	O6633	O	0.755289	0.209247	0.554479
	O6634	O	0.631198	0.374535	0.514115
	O6635	O	0.762026	0.125057	0.430773
	C6636	C	0.737922	0.214398	0.540279
	C6637	C	0.742414	0.124873	0.543692
	C6638	C	0.737900	0.035411	0.540342
	C6639	C	0.729160	0.035501	0.533692
	C6640	C	0.724673	0.124840	0.530246
	C6641	C	0.729177	0.214418	0.533615
	C6642	C	0.715376	0.124726	0.522607
	C6643	C	0.751686	0.124961	0.551433
	C6644	C	0.686864	0.125624	0.518472
	C6645	C	0.676236	0.125029	0.517692
	C6646	C	0.671237	0.214641	0.516647
	C6647	C	0.661511	0.214424	0.514767
	C6648	C	0.656538	0.124413	0.513942
	C6649	C	0.661531	0.034556	0.514908
	C6650	C	0.671258	0.034953	0.516798
	C6651	C	0.645914	0.124738	0.513376
	C6652	C	0.689194	0.374916	0.488972
	C6653	C	0.679907	0.374995	0.481212
	C6654	C	0.675398	0.464451	0.477906
	C6655	C	0.666628	0.464206	0.471272
	C6656	C	0.662164	0.374843	0.467805
	C6657	C	0.666659	0.285455	0.471146
	C6658	C	0.675418	0.285633	0.477785
	C6659	C	0.652877	0.374804	0.460109
	C6660	C	0.715976	0.375271	0.487076
	C6661	C	0.724575	0.375171	0.475619
	C6662	C	0.728616	0.286112	0.470123
	C6663	C	0.736516	0.286050	0.459389
	C6664	C	0.740583	0.374923	0.453854
	C6665	C	0.736577	0.463816	0.459468
	C6666	C	0.728695	0.464020	0.470211
	C6667	C	0.748993	0.374943	0.442026
	H6668	H	0.739586	0.216971	0.455198
	H6669	H	0.725533	0.217218	0.474392
	H6670	H	0.741312	0.283862	0.542826
	H6671	H	0.725840	0.283799	0.530996
	H6672	H	0.702933	0.124142	0.485229
	H6673	H	0.700381	0.375089	0.526582
	H6674	H	0.632796	0.374952	0.503509
	H6675	H	0.762512	0.125196	0.441361
	H6676	H	0.678781	0.215844	0.480308
	H6677	H	0.663310	0.215634	0.468527
	H6678	H	0.657766	0.284401	0.514016
	H6679	H	0.674995	0.284740	0.517269
	H6680	H	0.663241	0.533721	0.468740
	H6681	H	0.678720	0.534291	0.480540
	H6682	H	0.675025	-0.035042	0.517551
	H6683	H	0.657772	-0.035606	0.514195
	H6684	H	0.725767	-0.033737	0.531115
	H6685	H	0.741262	-0.034368	0.542909
	H6686	H	0.725677	0.533049	0.474486
	H6687	H	0.739664	0.532670	0.455319
	Al6688	Al	0.692482	-0.500211	0.586676
	Al6689	Al	0.692464	-0.250437	0.586551
	Al6690	Al	0.630009	-0.250184	0.524107
	Al6691	Al	0.630036	-0.500360	0.524060
	O6692	O	0.701453	-0.459363	0.601650
	O6693	O	0.693688	-0.375165	0.576623
	O6694	O	0.691349	-0.125316	0.596599
	O6695	O	0.746201	-0.458910	0.633853
	O6696	O	0.680776	-0.459572	0.597509
	O6697	O	0.631580	-0.458760	0.590081
	O6698	O	0.680780	-0.291390	0.597480
	O6699	O	0.683632	-0.209144	0.571481
	O6700	O	0.638947	-0.209626	0.539112
	O6701	O	0.701444	-0.291609	0.601607
	O6702	O	0.704217	-0.209778	0.575680
	O6703	O	0.753581	-0.209212	0.581022
	O6704	O	0.631605	-0.290629	0.590226
	O6705	O	0.683629	-0.041194	0.571527
	O6706	O	0.638941	-0.041940	0.539038
	O6707	O	0.753553	-0.040758	0.581008
	O6708	O	0.704204	-0.041554	0.575631
	O6709	O	0.746146	-0.291129	0.633915
	O6710	O	0.621036	-0.125056	0.591093
	O6711	O	0.764126	-0.375159	0.578328
	C6712	C	0.728338	-0.285474	0.620581
	C6713	C	0.732993	-0.375062	0.623662
	C6714	C	0.728359	-0.464688	0.620543
	C6715	C	0.719347	-0.464880	0.614716
	C6716	C	0.714689	-0.375240	0.611695
	C6717	C	0.719330	-0.285544	0.614760
	C6718	C	0.705174	-0.375395	0.604521
	C6719	C	0.742475	-0.375098	0.630968
	C6720	C	0.676590	-0.375435	0.597183
	C6721	C	0.665997	-0.375022	0.596117
	C6722	C	0.661015	-0.285119	0.595083
	C6723	C	0.651338	-0.284987	0.592783
	C6724	C	0.646386	-0.374933	0.591471
	C6725	C	0.651363	-0.464788	0.592507
	C6726	C	0.661037	-0.464944	0.594820
	C6727	C	0.635770	-0.374744	0.590449
	C6728	C	0.679912	-0.125102	0.568590
	C6729	C	0.670474	-0.125256	0.561232
	C6730	C	0.665860	-0.035630	0.558033
	C6731	C	0.656879	-0.035812	0.552111
	C6732	C	0.652183	-0.125378	0.549183
	C6733	C	0.656839	-0.214911	0.552254
	C6734	C	0.665808	-0.214809	0.558193
	C6735	C	0.642695	-0.125815	0.541909
	C6736	C	0.708418	-0.125611	0.575832
	C6737	C	0.719027	-0.125377	0.576488
	C6738	C	0.724046	-0.215348	0.577428
	C6739	C	0.733773	-0.215222	0.579271
	C6740	C	0.738770	-0.125223	0.580190
	C6741	C	0.733753	-0.035210	0.579229
	C6742	C	0.724023	-0.035320	0.577400
	C6743	C	0.749375	-0.125016	0.580859
	H6744	H	0.737538	-0.285098	0.580037
	H6745	H	0.720293	-0.285468	0.576818
	H6746	H	0.731751	-0.214915	0.622820
	H6747	H	0.715848	-0.215427	0.612548
	H6748	H	0.695334	-0.375449	0.566040
	H6749	H	0.689763	-0.125710	0.607207
	H6750	H	0.622522	-0.125017	0.580488
	H6751	H	0.762837	-0.375304	0.589045
	H6752	H	0.669223	-0.285077	0.560559
	H6753	H	0.653392	-0.284982	0.550009
	H6754	H	0.647608	-0.214756	0.592008
	H6755	H	0.664735	-0.215491	0.596089
	H6756	H	0.653450	0.034437	0.549768
	H6757	H	0.669301	0.034420	0.560260
	H6758	H	0.664735	-0.535172	0.595620
	H6759	H	0.647612	-0.534578	0.591516
	H6760	H	0.715915	-0.534855	0.612523
	H6761	H	0.731816	-0.534558	0.622798
	H6762	H	0.720225	0.034478	0.576718
	H6763	H	0.737512	0.034655	0.579946
	Al6764	Al	0.692502	-0.000596	0.586617
	Al6765	Al	0.692530	0.249936	0.586595
	Al6766	Al	0.630018	0.249241	0.524101
	Al6767	Al	0.630030	-0.000272	0.524048
	O6768	O	0.701484	0.040598	0.601537
	O6769	O	0.693661	0.124747	0.576610
	O6770	O	0.691297	0.374535	0.596599
	O6771	O	0.746178	0.041359	0.633934
	O6772	O	0.680807	0.040850	0.597500
	O6773	O	0.631600	0.041077	0.590221
	O6774	O	0.680777	0.209076	0.597503
	O6775	O	0.683648	0.290987	0.571501
	O6776	O	0.638970	0.290412	0.539094
	O6777	O	0.701384	0.208541	0.601763
	O6778	O	0.704208	0.290786	0.575743
	O6779	O	0.753535	0.291142	0.581014
	O6780	O	0.631615	0.209106	0.590225
	O6781	O	0.683593	0.458805	0.571633
	O6782	O	0.638914	0.458349	0.539079
	O6783	O	0.753548	0.459597	0.580982
	O6784	O	0.704168	0.458883	0.575714
	O6785	O	0.746103	0.209152	0.633993
	O6786	O	0.621063	0.375124	0.591038
	O6787	O	0.764152	0.124804	0.578353
	C6788	C	0.728334	0.214538	0.620562
	C6789	C	0.732991	0.125096	0.623582
	C6790	C	0.728402	0.035386	0.620435
	C6791	C	0.719398	0.035292	0.614602
	C6792	C	0.714711	0.124699	0.611616
	C6793	C	0.719324	0.214370	0.614720
	C6794	C	0.705159	0.124659	0.604493
	C6795	C	0.742455	0.125069	0.630990
	C6796	C	0.676604	0.124848	0.597116
	C6797	C	0.666022	0.124690	0.596029
	C6798	C	0.661046	0.214510	0.594956
	C6799	C	0.651373	0.214792	0.592726
	C6800	C	0.646402	0.125104	0.591500
	C6801	C	0.651384	0.035144	0.592542
	C6802	C	0.661063	0.035097	0.594781
	C6803	C	0.635802	0.124995	0.590493
	C6804	C	0.679932	0.374834	0.568565
	C6805	C	0.670473	0.374860	0.561156
	C6806	C	0.665826	0.464443	0.558007
	C6807	C	0.656832	0.464585	0.552122
	C6808	C	0.652168	0.374984	0.549130
	C6809	C	0.656801	0.285250	0.552264
	C6810	C	0.665790	0.285259	0.558136
	C6811	C	0.642647	0.374547	0.542008
	C6812	C	0.708391	0.374932	0.575863
	C6813	C	0.719001	0.375132	0.576432
	C6814	C	0.724009	0.285332	0.577307
	C6815	C	0.733744	0.285538	0.579124
	C6816	C	0.738716	0.375530	0.580145
	C6817	C	0.733696	0.465141	0.579211
	C6818	C	0.723977	0.465061	0.577404
	C6819	C	0.749334	0.375377	0.580828
	H6820	H	0.737520	0.215672	0.579778
	H6821	H	0.720258	0.215328	0.576509
	H6822	H	0.731782	0.284440	0.622770
	H6823	H	0.715875	0.284746	0.612527
	H6824	H	0.694997	0.124809	0.565943
	H6825	H	0.689562	0.374407	0.607149
	H6826	H	0.622688	0.374721	0.580462
	H6827	H	0.763001	0.124689	0.588971
	H6828	H	0.669249	0.215187	0.560381
	H6829	H	0.653327	0.215122	0.550082
	H6830	H	0.647607	0.284887	0.592000
	H6831	H	0.664762	0.284609	0.595990
	H6832	H	0.653398	0.534545	0.549855
	H6833	H	0.669302	0.534488	0.560125
	H6834	H	0.664805	-0.034890	0.595705
	H6835	H	0.647669	-0.034700	0.591719
	H6836	H	0.715980	-0.034865	0.612310
	H6837	H	0.731885	-0.034562	0.622592
	H6838	H	0.720204	0.534890	0.576670
	H6839	H	0.737415	0.535281	0.579953
	Al6840	Al	0.682459	-0.499704	0.663468
	Al6841	Al	0.682442	-0.249751	0.663520
	Al6842	Al	0.619901	-0.249684	0.601138
	Al6843	Al	0.619895	-0.499888	0.601005
	O6844	O	0.691351	-0.458395	0.678559
	O6845	O	0.683586	-0.374577	0.653473
	O6846	O	0.681302	-0.124469	0.673515
	O6847	O	0.735995	-0.458865	0.711041
	O6848	O	0.670751	-0.458632	0.674413
	O6849	O	0.621380	-0.458958	0.669046
	O6850	O	0.670758	-0.290651	0.674446
	O6851	O	0.673559	-0.208332	0.648388
	O6852	O	0.628794	-0.208962	0.616263
	O6853	O	0.691318	-0.290643	0.678643
	O6854	O	0.694154	-0.208978	0.652595
	O6855	O	0.743351	-0.209159	0.659919
	O6856	O	0.621364	-0.290895	0.669041
	O6857	O	0.673530	-0.040808	0.648492
	O6858	O	0.628729	-0.041197	0.616319
	O6859	O	0.743365	-0.041378	0.659966
	O6860	O	0.694178	-0.040799	0.652612
	O6861	O	0.736094	-0.291150	0.710836
	O6862	O	0.610870	-0.124978	0.671759
	O6863	O	0.753845	-0.375225	0.659016
	C6864	C	0.718114	-0.285406	0.697966
	C6865	C	0.722764	-0.374935	0.700957
	C6866	C	0.718110	-0.464415	0.697942
	C6867	C	0.709121	-0.464398	0.692064
	C6868	C	0.704472	-0.374831	0.689001
	C6869	C	0.709125	-0.285400	0.692101
	C6870	C	0.695020	-0.374543	0.681552
	C6871	C	0.732305	-0.374996	0.708175
	C6872	C	0.666570	-0.374564	0.674286
	C6873	C	0.655935	-0.374513	0.673641
	C6874	C	0.650916	-0.284668	0.672742
	C6875	C	0.641175	-0.284810	0.670884
	C6876	C	0.636200	-0.374787	0.669896
	C6877	C	0.641221	-0.464683	0.670836
	C6878	C	0.650957	-0.464498	0.672706
	C6879	C	0.625568	-0.374889	0.669202
	C6880	C	0.669812	-0.124757	0.645571
	C6881	C	0.660295	-0.125015	0.638395
	C6882	C	0.655640	-0.035328	0.635338
	C6883	C	0.646635	-0.035207	0.629551
	C6884	C	0.641952	-0.124794	0.626494
	C6885	C	0.646634	-0.214496	0.629490
	C6886	C	0.655637	-0.214507	0.635289
	C6887	C	0.632471	-0.124884	0.619187
	C6888	C	0.698357	-0.124984	0.652926
	C6889	C	0.708941	-0.124646	0.653909
	C6890	C	0.713912	-0.214519	0.654983
	C6891	C	0.723579	-0.214780	0.657294
	C6892	C	0.728573	-0.125121	0.658542
	C6893	C	0.723602	-0.035096	0.657491
	C6894	C	0.713921	-0.034963	0.655198
	C6895	C	0.739151	-0.125230	0.659626
	H6896	H	0.727303	-0.285011	0.658075
	H6897	H	0.710182	-0.284594	0.654005
	H6898	H	0.721593	-0.215446	0.700145
	H6899	H	0.705687	-0.215290	0.689841
	H6900	H	0.685107	-0.374597	0.642878
	H6901	H	0.679880	-0.124051	0.684088
	H6902	H	0.612067	-0.125000	0.661071
	H6903	H	0.752164	-0.374811	0.669561
	H6904	H	0.659129	-0.284504	0.637507
	H6905	H	0.643160	-0.284695	0.627293
	H6906	H	0.637399	-0.214912	0.670109
	H6907	H	0.654623	-0.214521	0.673515
	H6908	H	0.643154	0.034970	0.627376
	H6909	H	0.659113	0.034722	0.637610
	H6910	H	0.654743	-0.534130	0.673402
	H6911	H	0.637514	-0.534884	0.670061
	H6912	H	0.705692	-0.534568	0.689810
	H6913	H	0.721601	-0.534529	0.700131
	H6914	H	0.710192	0.035117	0.654387
	H6915	H	0.727342	0.034742	0.658387
	Al6916	Al	0.682471	0.000196	0.663475
	Al6917	Al	0.682430	0.250052	0.663533
	Al6918	Al	0.619881	0.250237	0.601012
	Al6919	Al	0.619897	-0.000035	0.601149
	O6920	O	0.691325	0.041264	0.678579
	O6921	O	0.683656	0.125182	0.653504
	O6922	O	0.681257	0.375222	0.673500
	O6923	O	0.735986	0.040747	0.710967
	O6924	O	0.670755	0.041241	0.674341
	O6925	O	0.621359	0.040840	0.669083
	O6926	O	0.670673	0.209086	0.674354
	O6927	O	0.673512	0.291078	0.648565
	O6928	O	0.628767	0.290999	0.616217
	O6929	O	0.691313	0.209152	0.678669
	O6930	O	0.694134	0.291055	0.652656
	O6931	O	0.743350	0.290854	0.659994
	O6932	O	0.621399	0.209032	0.669047
	O6933	O	0.673546	0.458782	0.648412
	O6934	O	0.628818	0.458835	0.616113
	O6935	O	0.743299	0.458783	0.659945
	O6936	O	0.694135	0.459242	0.652563
	O6937	O	0.736034	0.208642	0.710921
	O6938	O	0.610895	0.374919	0.671736
	O6939	O	0.753860	0.124818	0.659019
	C6940	C	0.718097	0.214516	0.697865
	C6941	C	0.722748	0.124824	0.700938
	C6942	C	0.718114	0.035161	0.697852
	C6943	C	0.709128	0.035372	0.691977
	C6944	C	0.704476	0.125172	0.688925
	C6945	C	0.709101	0.214834	0.692021
	C6946	C	0.695006	0.125060	0.681595
	C6947	C	0.732282	0.124869	0.708083
	C6948	C	0.666516	0.124950	0.674254
	C6949	C	0.655913	0.124884	0.673628
	C6950	C	0.650914	0.214694	0.672668
	C6951	C	0.641203	0.214617	0.670780
	C6952	C	0.636214	0.124701	0.669882
	C6953	C	0.641233	0.035060	0.670839
	C6954	C	0.650951	0.034997	0.672717
	C6955	C	0.625574	0.124856	0.669204
	C6956	C	0.669779	0.375023	0.645694
	C6957	C	0.660245	0.374843	0.638525
	C6958	C	0.655606	0.464475	0.635333
	C6959	C	0.646611	0.464579	0.629494
	C6960	C	0.641935	0.374953	0.626513
	C6961	C	0.646574	0.285348	0.629667
	C6962	C	0.655569	0.285220	0.635523
	C6963	C	0.632475	0.374878	0.619148
	C6964	C	0.698334	0.375197	0.652905
	C6965	C	0.708917	0.374690	0.653962
	C6966	C	0.713889	0.284707	0.655049
	C6967	C	0.723570	0.284597	0.657385
	C6968	C	0.728535	0.374499	0.658592
	C6969	C	0.723547	0.464478	0.657540
	C6970	C	0.713882	0.464571	0.655196
	C6971	C	0.739129	0.374682	0.659670
	H6972	H	0.727303	0.214587	0.658266
	H6973	H	0.710156	0.214721	0.654044
	H6974	H	0.721597	0.284431	0.700068
	H6975	H	0.705676	0.284934	0.689784
	H6976	H	0.685298	0.124928	0.642953
	H6977	H	0.679715	0.375614	0.684092
	H6978	H	0.612305	0.374771	0.661104
	H6979	H	0.752333	0.124262	0.669626
	H6980	H	0.659011	0.214941	0.637793
	H6981	H	0.643084	0.215261	0.627470
	H6982	H	0.637481	0.284714	0.669934
	H6983	H	0.654689	0.284593	0.673335
	H6984	H	0.643162	0.534492	0.627202
	H6985	H	0.659103	0.534254	0.637442
	H6986	H	0.654701	-0.034957	0.673379
	H6987	H	0.637463	-0.034611	0.670008
	H6988	H	0.705669	-0.034454	0.689682
	H6989	H	0.721575	-0.035182	0.700017
	H6990	H	0.710161	0.534640	0.654284
	H6991	H	0.727273	0.534277	0.658489
	Al6992	Al	0.672693	-0.499743	0.744106
	Al6993	Al	0.672685	-0.250410	0.744128
	Al6994	Al	0.610155	-0.249616	0.681626
	Al6995	Al	0.610200	-0.500494	0.681580
	O6996	O	0.682230	-0.459065	0.758029
	O6997	O	0.673380	-0.375177	0.734179
	O6998	O	0.672276	-0.125178	0.754091
	O6999	O	0.725770	-0.458675	0.792867
	O7000	O	0.662434	-0.459137	0.758617
	O7001	O	0.622704	-0.458931	0.812608
	O7002	O	0.662487	-0.291401	0.758670
	O7003	O	0.663268	-0.208721	0.730426
	O7004	O	0.619645	-0.208761	0.695772
	O7005	O	0.682186	-0.290966	0.758064
	O7006	O	0.683928	-0.208984	0.731646
	O7007	O	0.733251	-0.208977	0.736839
	O7008	O	0.622675	-0.290946	0.812607
	O7009	O	0.663270	-0.040618	0.730494
	O7010	O	0.619672	-0.040778	0.695639
	O7011	O	0.733281	-0.040786	0.736953
	O7012	O	0.683916	-0.040707	0.731544
	O7013	O	0.725762	-0.290680	0.792937
	O7014	O	0.613039	-0.124994	0.819208
	O7015	O	0.743796	-0.374376	0.736001
	C7016	C	0.708353	-0.285073	0.778762
	C7017	C	0.712859	-0.374553	0.782172
	C7018	C	0.708388	-0.464135	0.778736
	C7019	C	0.699644	-0.464349	0.772084
	C7020	C	0.695131	-0.374823	0.768648
	C7021	C	0.699609	-0.285263	0.772099
	C7022	C	0.685846	-0.374866	0.761036
	C7023	C	0.722115	-0.374488	0.789886
	C7024	C	0.659025	-0.375124	0.762994
	C7025	C	0.650431	-0.374955	0.774435
	C7026	C	0.646373	-0.285865	0.779940
	C7027	C	0.638491	-0.285787	0.790677
	C7028	C	0.634427	-0.374636	0.796230
	C7029	C	0.638451	-0.463591	0.790640
	C7030	C	0.646333	-0.463662	0.779902
	C7031	C	0.625995	-0.374875	0.808083
	C7032	C	0.659631	-0.124956	0.727495
	C7033	C	0.650332	-0.124626	0.719791
	C7034	C	0.645856	-0.035224	0.716368
	C7035	C	0.637114	-0.035288	0.709725
	C7036	C	0.632613	-0.124856	0.706337
	C7037	C	0.637145	-0.214391	0.709630
	C7038	C	0.645881	-0.214271	0.716272
	C7039	C	0.623297	-0.124822	0.698656
	C7040	C	0.688129	-0.124891	0.731758
	C7041	C	0.698738	-0.124742	0.732444
	C7042	C	0.703721	-0.214542	0.733497
	C7043	C	0.713451	-0.214487	0.735340
	C7044	C	0.718449	-0.124653	0.736214
	C7045	C	0.713466	-0.034855	0.735183
	C7046	C	0.703740	-0.034899	0.733339
	C7047	C	0.729056	-0.124754	0.736762
	H7048	H	0.717203	-0.284623	0.736081
	H7049	H	0.699954	-0.284170	0.732806
	H7050	H	0.711739	-0.215457	0.781354
	H7051	H	0.696229	-0.215714	0.769527
	H7052	H	0.674673	-0.375170	0.723496
	H7053	H	0.671857	-0.126036	0.764884
	H7054	H	0.612654	-0.124757	0.808493
	H7055	H	0.742387	-0.374198	0.746685
	H7056	H	0.649292	-0.283803	0.718790
	H7057	H	0.633814	-0.284179	0.706971
	H7058	H	0.635411	-0.217099	0.794924
	H7059	H	0.649440	-0.217118	0.775733
	H7060	H	0.633736	0.034185	0.707104
	H7061	H	0.649248	0.034537	0.718931
	H7062	H	0.649412	-0.532714	0.775708
	H7063	H	0.635376	-0.532363	0.794855
	H7064	H	0.696281	-0.533934	0.769455
	H7065	H	0.711792	-0.533566	0.781283
	H7066	H	0.700012	0.035100	0.732516
	H7067	H	0.717235	0.035092	0.735792
	Al7068	Al	0.672672	0.000643	0.744210
	Al7069	Al	0.672674	0.249131	0.744200
	Al7070	Al	0.610170	0.250201	0.681647
	Al7071	Al	0.610160	-0.000595	0.681691
	O7072	O	0.682208	0.041022	0.758117
	O7073	O	0.673416	0.124825	0.734242
	O7074	O	0.672303	0.374859	0.754123
	O7075	O	0.725831	0.041000	0.792805
	O7076	O	0.662432	0.041093	0.758663
	O7077	O	0.622631	0.041191	0.812624
	O7078	O	0.662460	0.208753	0.758753
	O7079	O	0.663241	0.290796	0.730544
	O7080	O	0.619637	0.291239	0.695703
	O7081	O	0.682202	0.208949	0.758164
	O7082	O	0.683894	0.290537	0.731587
	O7083	O	0.733234	0.290937	0.736843
	O7084	O	0.622642	0.209006	0.812623
	O7085	O	0.663292	0.458810	0.730401
	O7086	O	0.619735	0.459363	0.695483
	O7087	O	0.733256	0.459070	0.737023
	O7088	O	0.683898	0.458835	0.731582
	O7089	O	0.725845	0.208826	0.792748
	O7090	O	0.613036	0.375014	0.819263
	O7091	O	0.743839	0.125131	0.735872
	C7092	C	0.708389	0.214212	0.778755
	C7093	C	0.712871	0.124808	0.782164
	C7094	C	0.708396	0.035462	0.778754
	C7095	C	0.699648	0.035478	0.772135
	C7096	C	0.695145	0.124876	0.768788
	C7097	C	0.699628	0.214297	0.772164
	C7098	C	0.685852	0.124868	0.761140
	C7099	C	0.722147	0.124800	0.789835
	C7100	C	0.659017	0.125018	0.763058
	C7101	C	0.650380	0.124783	0.774425
	C7102	C	0.646338	0.213561	0.779947
	C7103	C	0.638422	0.213518	0.790713
	C7104	C	0.634363	0.124730	0.796204
	C7105	C	0.638384	0.035973	0.790628
	C7106	C	0.646299	0.035876	0.779884
	C7107	C	0.625961	0.125094	0.808059
	C7108	C	0.659604	0.374940	0.727533
	C7109	C	0.650316	0.374831	0.719829
	C7110	C	0.645831	0.464508	0.716417
	C7111	C	0.637090	0.464601	0.709748
	C7112	C	0.632604	0.375146	0.706305
	C7113	C	0.637086	0.285481	0.709676
	C7114	C	0.645827	0.285240	0.716359
	C7115	C	0.623314	0.375293	0.698574
	C7116	C	0.688108	0.374732	0.731682
	C7117	C	0.698726	0.374650	0.732357
	C7118	C	0.703721	0.284753	0.733421
	C7119	C	0.713450	0.284939	0.735282
	C7120	C	0.718445	0.374916	0.736091
	C7121	C	0.713462	0.464820	0.735047
	C7122	C	0.703732	0.464710	0.733182
	C7123	C	0.729052	0.375099	0.736802
	H7124	H	0.717209	0.214922	0.736108
	H7125	H	0.699973	0.214598	0.732738
	H7126	H	0.711769	0.283924	0.781322
	H7127	H	0.696256	0.283920	0.769543
	H7128	H	0.674862	0.124790	0.723592
	H7129	H	0.672032	0.374567	0.764917
	H7130	H	0.612656	0.374532	0.808637
	H7131	H	0.742393	0.125060	0.746562
	H7132	H	0.649197	0.215511	0.718901
	H7133	H	0.633685	0.215818	0.707039
	H7134	H	0.635397	0.282100	0.794960
	H7135	H	0.649417	0.282311	0.775777
	H7136	H	0.633739	0.534448	0.707195
	H7137	H	0.649219	0.534072	0.719006
	H7138	H	0.649340	-0.032783	0.775677
	H7139	H	0.635312	-0.033172	0.794848
	H7140	H	0.696302	-0.034283	0.769518
	H7141	H	0.711783	-0.034017	0.781333
	H7142	H	0.699985	0.534553	0.732341
	H7143	H	0.717219	0.534789	0.735703
	Al7144	Al	0.675929	-0.500069	0.891566
	Al7145	Al	0.675893	-0.250126	0.891490
	Al7146	Al	0.613406	-0.249970	0.828967
	Al7147	Al	0.613437	-0.500192	0.828934
	O7148	O	0.686117	-0.459108	0.903712
	O7149	O	0.675555	-0.375254	0.881884
	O7150	O	0.676240	-0.125180	0.901236
	O7151	O	0.728238	-0.459377	0.941736
	O7152	O	0.666800	-0.458829	0.908101
	O7153	O	0.630037	-0.459250	0.967672
	O7154	O	0.666764	-0.290721	0.908038
	O7155	O	0.665689	-0.209450	0.879332
	O7156	O	0.623619	-0.209098	0.841120
	O7157	O	0.686174	-0.290967	0.903534
	O7158	O	0.685194	-0.208759	0.875222
	O7159	O	0.724882	-0.209237	0.821157
	O7160	O	0.629984	-0.291260	0.967650
	O7161	O	0.665665	-0.041249	0.879424
	O7162	O	0.623602	-0.041088	0.841100
	O7163	O	0.724912	-0.041387	0.821108
	O7164	O	0.685191	-0.040707	0.875255
	O7165	O	0.728204	-0.291221	0.941886
	O7166	O	0.620550	-0.125156	0.974805
	O7167	O	0.734790	-0.375588	0.816713
	C7168	C	0.711336	-0.285775	0.926590
	C7169	C	0.715656	-0.374955	0.930395
	C7170	C	0.711391	-0.464139	0.926490
	C7171	C	0.702996	-0.464008	0.918839
	C7172	C	0.698694	-0.374793	0.915029
	C7173	C	0.702950	-0.285633	0.918949
	C7174	C	0.689698	-0.375108	0.906717
	C7175	C	0.724673	-0.375097	0.938691
	C7176	C	0.663655	-0.374812	0.912985
	C7177	C	0.655759	-0.374941	0.925784
	C7178	C	0.651981	-0.285908	0.931824
	C7179	C	0.644710	-0.285876	0.943727
	C7180	C	0.640980	-0.375104	0.949860
	C7181	C	0.644747	-0.464064	0.943790
	C7182	C	0.652015	-0.464092	0.931900
	C7183	C	0.633130	-0.375132	0.962740
	C7184	C	0.662130	-0.125201	0.876262
	C7185	C	0.653146	-0.125357	0.867898
	C7186	C	0.648894	-0.036230	0.863972
	C7187	C	0.640488	-0.036156	0.856330
	C7188	C	0.636166	-0.125023	0.852556
	C7189	C	0.640464	-0.214036	0.856385
	C7190	C	0.648859	-0.214272	0.864014
	C7191	C	0.627151	-0.125002	0.844278
	C7192	C	0.688473	-0.124703	0.870686
	C7193	C	0.696913	-0.124630	0.858829
	C7194	C	0.700929	-0.213695	0.853287
	C7195	C	0.708813	-0.214003	0.842448
	C7196	C	0.712858	-0.125074	0.836942
	C7197	C	0.708826	-0.036095	0.842458
	C7198	C	0.700945	-0.035834	0.853299
	C7199	C	0.721485	-0.125252	0.825521
	H7200	H	0.711824	-0.282834	0.838274
	H7201	H	0.697900	-0.282582	0.857523
	H7202	H	0.714574	-0.216990	0.929658
	H7203	H	0.699700	-0.216527	0.915973
	H7204	H	0.675228	-0.375523	0.871191
	H7205	H	0.676521	-0.125329	0.911945
	H7206	H	0.620058	-0.125342	0.964077
	H7207	H	0.734684	-0.375808	0.827484
	H7208	H	0.652103	-0.283164	0.866970
	H7209	H	0.637209	-0.282606	0.853453
	H7210	H	0.641849	-0.216920	0.948382
	H7211	H	0.654774	-0.216916	0.927150
	H7212	H	0.637231	0.032687	0.853374
	H7213	H	0.652211	0.032307	0.866888
	H7214	H	0.654870	-0.532999	0.927278
	H7215	H	0.641958	-0.533258	0.948460
	H7216	H	0.699743	-0.532928	0.915716
	H7217	H	0.714655	-0.532910	0.929430
	H7218	H	0.697908	0.033136	0.857536
	H7219	H	0.711910	0.032910	0.838365
	Al7220	Al	0.675854	-0.000148	0.891522
	Al7221	Al	0.675849	0.249850	0.891600
	Al7222	Al	0.613409	0.250174	0.828993
	Al7223	Al	0.613384	0.000033	0.829002
	O7224	O	0.686081	0.040824	0.903643
	O7225	O	0.675416	0.124858	0.881859
	O7226	O	0.676246	0.374843	0.901340
	O7227	O	0.728179	0.040251	0.941877
	O7228	O	0.666782	0.041068	0.908145
	O7229	O	0.630002	0.040790	0.967700
	O7230	O	0.666701	0.209160	0.908103
	O7231	O	0.665636	0.291106	0.879507
	O7232	O	0.623658	0.290563	0.840991
	O7233	O	0.686100	0.208864	0.903653
	O7234	O	0.685190	0.290788	0.875287
	O7235	O	0.724911	0.290777	0.821121
	O7236	O	0.629982	0.208622	0.967702
	O7237	O	0.665668	0.459321	0.879532
	O7238	O	0.623662	0.458756	0.841023
	O7239	O	0.724870	0.458481	0.821061
	O7240	O	0.685227	0.458740	0.875300
	O7241	O	0.728199	0.208448	0.941806
	O7242	O	0.620540	0.374637	0.974803
	O7243	O	0.734815	0.125050	0.816617
	C7244	C	0.711352	0.213899	0.926550
	C7245	C	0.715630	0.124441	0.930371
	C7246	C	0.711392	0.035590	0.926329
	C7247	C	0.703002	0.035717	0.918707
	C7248	C	0.698678	0.124855	0.914989
	C7249	C	0.702956	0.213975	0.918889
	C7250	C	0.689655	0.124717	0.906763
	C7251	C	0.724651	0.124309	0.938703
	C7252	C	0.663623	0.125034	0.913064
	C7253	C	0.655744	0.124927	0.925856
	C7254	C	0.651961	0.213917	0.931869
	C7255	C	0.644664	0.213749	0.943753
	C7256	C	0.640955	0.124634	0.949872
	C7257	C	0.644701	0.035654	0.943834
	C7258	C	0.651997	0.035881	0.931959
	C7259	C	0.633111	0.124601	0.962760
	C7260	C	0.662113	0.375225	0.876340
	C7261	C	0.653124	0.375190	0.867960
	C7262	C	0.648805	0.464006	0.864118
	C7263	C	0.640440	0.463973	0.856415
	C7264	C	0.636221	0.374762	0.852433
	C7265	C	0.640519	0.285929	0.856313
	C7266	C	0.648895	0.285952	0.864016
	C7267	C	0.627213	0.374687	0.844117
	C7268	C	0.688508	0.374680	0.870739
	C7269	C	0.696927	0.374483	0.858858
	C7270	C	0.700939	0.285433	0.853233
	C7271	C	0.708793	0.285643	0.842408
	C7272	C	0.712869	0.374632	0.836944
	C7273	C	0.708799	0.463689	0.842425
	C7274	C	0.700938	0.463510	0.853248
	C7275	C	0.721482	0.374631	0.825463
	H7276	H	0.711836	0.216573	0.838153
	H7277	H	0.697900	0.216030	0.857429
	H7278	H	0.714603	0.282721	0.929615
	H7279	H	0.699673	0.282826	0.915871
	H7280	H	0.675018	0.124861	0.871111
	H7281	H	0.676630	0.374823	0.912108
	H7282	H	0.619987	0.374534	0.964170
	H7283	H	0.734527	0.125243	0.827420
	H7284	H	0.652162	0.217166	0.867068
	H7285	H	0.637330	0.217086	0.853175
	H7286	H	0.641817	0.282880	0.948348
	H7287	H	0.654748	0.282812	0.927238
	H7288	H	0.637179	0.532847	0.853415
	H7289	H	0.651978	0.532879	0.867214
	H7290	H	0.654830	-0.033066	0.927312
	H7291	H	0.641910	-0.033717	0.948511
	H7292	H	0.699800	-0.033512	0.915604
	H7293	H	0.714671	-0.033391	0.929259
	H7294	H	0.697885	0.532649	0.857451
	H7295	H	0.711841	0.532784	0.838178
	Al7296	Al	0.800869	-0.500022	0.016596
	Al7297	Al	0.800938	-0.249873	0.016574
	Al7298	Al	0.738425	-0.250092	-0.045986
	Al7299	Al	0.738382	-0.500646	-0.046037
	O7300	O	0.811138	-0.459356	0.028645
	O7301	O	0.800544	-0.375025	0.006909
	O7302	O	0.801386	-0.124930	0.026286
	O7303	O	0.853217	-0.459265	0.066978
	O7304	O	0.791755	-0.458755	0.033159
	O7305	O	0.755000	-0.458772	0.092734
	O7306	O	0.791806	-0.290802	0.033224
	O7307	O	0.790707	-0.208858	0.004541
	O7308	O	0.748656	-0.209080	-0.033889
	O7309	O	0.811150	-0.291367	0.028712
	O7310	O	0.810241	-0.208863	0.000308
	O7311	O	0.849930	-0.208324	-0.053836
	O7312	O	0.754967	-0.290989	0.092614
	O7313	O	0.790712	-0.040839	0.004523
	O7314	O	0.748650	-0.040901	-0.033816
	O7315	O	0.849878	-0.040828	-0.053927
	O7316	O	0.810183	-0.040892	0.000276
	O7317	O	0.853236	-0.291247	0.067002
	O7318	O	0.745476	-0.124963	0.099813
	O7319	O	0.859813	-0.374989	-0.058273
	C7320	C	0.836375	-0.286239	0.051703
	C7321	C	0.840685	-0.375403	0.055504
	C7322	C	0.836418	-0.464690	0.051549
	C7323	C	0.828022	-0.464649	0.043914
	C7324	C	0.823692	-0.375542	0.040152
	C7325	C	0.827975	-0.286352	0.044090
	C7326	C	0.814693	-0.375391	0.031806
	C7327	C	0.849683	-0.375295	0.063840
	C7328	C	0.788636	-0.374768	0.038062
	C7329	C	0.780717	-0.374850	0.050820
	C7330	C	0.776967	-0.285997	0.056935
	C7331	C	0.769660	-0.285982	0.068754
	C7332	C	0.765909	-0.374975	0.074841
	C7333	C	0.769688	-0.463741	0.068748
	C7334	C	0.776996	-0.463826	0.056927
	C7335	C	0.758083	-0.374813	0.087720
	C7336	C	0.787165	-0.124758	0.001385
	C7337	C	0.778177	-0.124533	-0.006961
	C7338	C	0.773915	-0.035517	-0.010919
	C7339	C	0.765523	-0.035616	-0.018581
	C7340	C	0.761221	-0.124850	-0.022388
	C7341	C	0.765496	-0.213725	-0.018475
	C7342	C	0.773893	-0.213538	-0.010823
	C7343	C	0.752192	-0.124895	-0.030731
	C7344	C	0.813527	-0.124635	-0.004294
	C7345	C	0.821950	-0.124623	-0.016153
	C7346	C	0.826062	-0.213391	-0.021552
	C7347	C	0.833947	-0.213562	-0.032397
	C7348	C	0.837926	-0.124769	-0.038004
	C7349	C	0.833798	-0.035930	-0.032677
	C7350	C	0.825922	-0.035976	-0.021813
	C7351	C	0.846488	-0.124807	-0.049518
	H7352	H	0.836990	-0.282277	-0.036487
	H7353	H	0.823045	-0.282322	-0.017296
	H7354	H	0.839612	-0.217123	0.054774
	H7355	H	0.824714	-0.217317	0.041083
	H7356	H	0.800335	-0.375649	-0.003795
	H7357	H	0.801813	-0.125093	0.036969
	H7358	H	0.745050	-0.124983	0.089137
	H7359	H	0.859678	-0.375206	-0.047462
	H7360	H	0.777131	-0.282430	-0.007785
	H7361	H	0.762232	-0.282580	-0.021499
	H7362	H	0.766843	-0.217199	0.073416
	H7363	H	0.779807	-0.216997	0.052325
	H7364	H	0.762314	0.033317	-0.021677
	H7365	H	0.777187	0.033077	-0.007956
	H7366	H	0.779853	-0.532656	0.052272
	H7367	H	0.766903	-0.532540	0.073455
	H7368	H	0.824813	-0.533581	0.040739
	H7369	H	0.839693	-0.533832	0.054527
	H7370	H	0.822840	0.033096	-0.017771
	H7371	H	0.836793	0.033025	-0.037030
	Al7372	Al	0.800929	0.000118	0.016646
	Al7373	Al	0.800847	0.250226	0.016616
	Al7374	Al	0.738372	0.249720	-0.046038
	Al7375	Al	0.738396	-0.000338	-0.045963
	O7376	O	0.811178	0.041594	0.028717
	O7377	O	0.800506	0.125010	0.006947
	O7378	O	0.801292	0.375126	0.026245
	O7379	O	0.853229	0.040998	0.066897
	O7380	O	0.791807	0.040724	0.033260
	O7381	O	0.754930	0.040811	0.092673
	O7382	O	0.791761	0.209028	0.033204
	O7383	O	0.790690	0.290934	0.004436
	O7384	O	0.748616	0.290877	-0.033977
	O7385	O	0.811104	0.209568	0.028713
	O7386	O	0.810167	0.290629	0.000207
	O7387	O	0.849978	0.290600	-0.053644
	O7388	O	0.754942	0.208854	0.092665
	O7389	O	0.790674	0.459177	0.004464
	O7390	O	0.748641	0.459014	-0.033993
	O7391	O	0.849969	0.458380	-0.053654
	O7392	O	0.810142	0.458883	0.000154
	O7393	O	0.853305	0.208995	0.066871
	O7394	O	0.745582	0.374892	0.099797
	O7395	O	0.859802	0.124612	-0.058291
	C7396	C	0.836353	0.214840	0.051783
	C7397	C	0.840686	0.125632	0.055484
	C7398	C	0.836413	0.036531	0.051502
	C7399	C	0.828013	0.036411	0.043890
	C7400	C	0.823694	0.125770	0.040153
	C7401	C	0.827952	0.214955	0.044160
	C7402	C	0.814682	0.125729	0.031826
	C7403	C	0.849702	0.125242	0.063761
	C7404	C	0.788652	0.124895	0.038122
	C7405	C	0.780709	0.124877	0.050867
	C7406	C	0.776957	0.213991	0.056928
	C7407	C	0.769653	0.214077	0.068795
	C7408	C	0.765893	0.124920	0.074860
	C7409	C	0.769621	0.035746	0.068756
	C7410	C	0.776921	0.035743	0.056888
	C7411	C	0.758046	0.124825	0.087741
	C7412	C	0.787134	0.375088	0.001333
	C7413	C	0.778132	0.374948	-0.007019
	C7414	C	0.773853	0.463838	-0.010961
	C7415	C	0.765480	0.463608	-0.018629
	C7416	C	0.761199	0.374597	-0.022492
	C7417	C	0.765474	0.285603	-0.018568
	C7418	C	0.773854	0.285802	-0.010897
	C7419	C	0.752175	0.374893	-0.030820
	C7420	C	0.813486	0.374815	-0.004377
	C7421	C	0.821874	0.374667	-0.016238
	C7422	C	0.825954	0.285674	-0.021716
	C7423	C	0.833868	0.285548	-0.032425
	C7424	C	0.837911	0.374601	-0.037930
	C7425	C	0.833770	0.463727	-0.032601
	C7426	C	0.825862	0.463712	-0.021892
	C7427	C	0.846563	0.374417	-0.049298
	H7428	H	0.836998	0.216636	-0.036556
	H7429	H	0.822938	0.216782	-0.017464
	H7430	H	0.839567	0.283899	0.054936
	H7431	H	0.824661	0.284116	0.041241
	H7432	H	0.800321	0.124874	-0.003789
	H7433	H	0.801899	0.374946	0.036894
	H7434	H	0.745266	0.375382	0.089104
	H7435	H	0.859661	0.123944	-0.047481
	H7436	H	0.777091	0.217230	-0.007742
	H7437	H	0.762223	0.216715	-0.021584
	H7438	H	0.766865	0.282983	0.073458
	H7439	H	0.779791	0.283176	0.052277
	H7440	H	0.762250	0.532255	-0.021733
	H7441	H	0.777085	0.532710	-0.007935
	H7442	H	0.779754	-0.033359	0.052294
	H7443	H	0.766823	-0.033326	0.073399
	H7444	H	0.824803	-0.032681	0.040739
	H7445	H	0.839681	-0.032388	0.054433
	H7446	H	0.822752	0.532650	-0.017693
	H7447	H	0.836809	0.532623	-0.036827
	Al7448	Al	0.808431	-0.500011	0.171968
	Al7449	Al	0.808467	-0.249858	0.171991
	Al7450	Al	0.745999	-0.249997	0.109486
	Al7451	Al	0.746006	-0.500352	0.109482
	O7452	O	0.818715	-0.458550	0.183947
	O7453	O	0.807988	-0.374985	0.162319
	O7454	O	0.808952	-0.125042	0.181625
	O7455	O	0.860683	-0.459079	0.222636
	O7456	O	0.799485	-0.458760	0.188778
	O7457	O	0.763077	-0.459091	0.248959
	O7458	O	0.799467	-0.290869	0.188756
	O7459	O	0.798191	-0.208462	0.160088
	O7460	O	0.756267	-0.208907	0.121452
	O7461	O	0.818780	-0.290458	0.183843
	O7462	O	0.817473	-0.209134	0.155188
	O7463	O	0.854287	-0.209329	0.095742
	O7464	O	0.763051	-0.290866	0.248857
	O7465	O	0.798111	-0.040465	0.160166
	O7466	O	0.756255	-0.040823	0.121418
	O7467	O	0.854256	-0.041573	0.095666
	O7468	O	0.817449	-0.041222	0.155274
	O7469	O	0.860663	-0.291006	0.222599
	O7470	O	0.753545	-0.124682	0.255968
	O7471	O	0.863824	-0.374815	0.088872
	C7472	C	0.843900	-0.286127	0.207177
	C7473	C	0.848141	-0.375228	0.211083
	C7474	C	0.843828	-0.464075	0.207163
	C7475	C	0.835476	-0.463733	0.199409
	C7476	C	0.831231	-0.374711	0.195500
	C7477	C	0.835549	-0.285991	0.199405
	C7478	C	0.822276	-0.374444	0.187050
	C7479	C	0.857127	-0.375290	0.219458
	C7480	C	0.796376	-0.374940	0.193711
	C7481	C	0.788560	-0.375026	0.206673
	C7482	C	0.784875	-0.286140	0.212812
	C7483	C	0.777646	-0.286130	0.224838
	C7484	C	0.773965	-0.375097	0.230994
	C7485	C	0.777682	-0.463946	0.224883
	C7486	C	0.784908	-0.464056	0.212869
	C7487	C	0.766157	-0.375030	0.243939
	C7488	C	0.794637	-0.124650	0.156942
	C7489	C	0.785675	-0.124930	0.148537
	C7490	C	0.781439	-0.036056	0.144516
	C7491	C	0.773090	-0.036043	0.136753
	C7492	C	0.768791	-0.125023	0.132947
	C7493	C	0.773046	-0.214036	0.136956
	C7494	C	0.781401	-0.214106	0.144703
	C7495	C	0.759785	-0.124843	0.124637
	C7496	C	0.820579	-0.124952	0.150311
	C7497	C	0.828442	-0.124696	0.137448
	C7498	C	0.832201	-0.213502	0.131431
	C7499	C	0.839485	-0.213782	0.119545
	C7500	C	0.843244	-0.124994	0.113425
	C7501	C	0.839501	-0.036070	0.119459
	C7502	C	0.832197	-0.035865	0.131340
	C7503	C	0.851144	-0.125322	0.100610
	H7504	H	0.842335	-0.282866	0.114957
	H7505	H	0.829417	-0.282729	0.136071
	H7506	H	0.847183	-0.217507	0.210182
	H7507	H	0.832338	-0.217194	0.196353
	H7508	H	0.807534	-0.375062	0.151671
	H7509	H	0.809527	-0.125260	0.192274
	H7510	H	0.753086	-0.125089	0.245261
	H7511	H	0.864203	-0.375171	0.099573
	H7512	H	0.784616	-0.282808	0.147848
	H7513	H	0.769768	-0.282854	0.134012
	H7514	H	0.774881	-0.217480	0.229493
	H7515	H	0.787653	-0.217137	0.208170
	H7516	H	0.769865	0.032985	0.133652
	H7517	H	0.784698	0.032872	0.147513
	H7518	H	0.787693	-0.533042	0.208240
	H7519	H	0.774934	-0.532677	0.229593
	H7520	H	0.832212	-0.532433	0.196329
	H7521	H	0.847046	-0.533124	0.210200
	H7522	H	0.829378	0.033164	0.135938
	H7523	H	0.842343	0.032954	0.114853
	Al7524	Al	0.808418	-0.000070	0.172024
	Al7525	Al	0.808456	0.250146	0.171933
	Al7526	Al	0.745979	0.250135	0.109421
	Al7527	Al	0.745982	0.000112	0.109510
	O7528	O	0.818736	0.040900	0.183935
	O7529	O	0.808016	0.124834	0.162299
	O7530	O	0.809023	0.375116	0.181553
	O7531	O	0.860625	0.041146	0.222696
	O7532	O	0.799496	0.041666	0.188798
	O7533	O	0.763056	0.040785	0.248926
	O7534	O	0.799463	0.209700	0.188723
	O7535	O	0.798184	0.290848	0.160075
	O7536	O	0.756225	0.290387	0.121484
	O7537	O	0.818763	0.208716	0.183879
	O7538	O	0.817399	0.291256	0.155073
	O7539	O	0.854289	0.290302	0.095693
	O7540	O	0.763064	0.208855	0.248925
	O7541	O	0.798133	0.458963	0.160148
	O7542	O	0.756282	0.458610	0.121398
	O7543	O	0.854342	0.458462	0.095763
	O7544	O	0.817446	0.459237	0.155180
	O7545	O	0.860630	0.209104	0.222683
	O7546	O	0.753577	0.375236	0.255972
	O7547	O	0.863839	0.124978	0.088779
	C7548	C	0.843869	0.214030	0.207203
	C7549	C	0.848168	0.125081	0.211048
	C7550	C	0.843893	0.035938	0.207118
	C7551	C	0.835551	0.035900	0.199367
	C7552	C	0.831276	0.124766	0.195454
	C7553	C	0.835536	0.213821	0.199435
	C7554	C	0.822316	0.124719	0.187024
	C7555	C	0.857103	0.125109	0.219480
	C7556	C	0.796384	0.125782	0.193756
	C7557	C	0.788570	0.125532	0.206663
	C7558	C	0.784858	0.214217	0.212883
	C7559	C	0.777646	0.213854	0.224904
	C7560	C	0.773921	0.124688	0.230987
	C7561	C	0.777632	0.035921	0.224777
	C7562	C	0.784856	0.036379	0.212773
	C7563	C	0.766159	0.124790	0.243974
	C7564	C	0.794642	0.374848	0.156914
	C7565	C	0.785679	0.374772	0.148511
	C7566	C	0.781432	0.463934	0.144572
	C7567	C	0.773070	0.463842	0.136814
	C7568	C	0.768795	0.374622	0.132917
	C7569	C	0.772997	0.285550	0.137015
	C7570	C	0.781358	0.285626	0.144756
	C7571	C	0.759798	0.374335	0.124608
	C7572	C	0.820531	0.375133	0.150159
	C7573	C	0.828398	0.374993	0.137330
	C7574	C	0.832198	0.285992	0.131425
	C7575	C	0.839520	0.285873	0.119570
	C7576	C	0.843230	0.374745	0.113379
	C7577	C	0.839443	0.463696	0.119323
	C7578	C	0.832122	0.463775	0.131195
	C7579	C	0.851158	0.374448	0.100607
	H7580	H	0.842350	0.216634	0.115050
	H7581	H	0.829407	0.217168	0.136127
	H7582	H	0.847103	0.282867	0.210281
	H7583	H	0.832300	0.282468	0.196392
	H7584	H	0.807630	0.124599	0.151519
	H7585	H	0.809667	0.374701	0.192208
	H7586	H	0.753036	0.374564	0.245362
	H7587	H	0.864389	0.124716	0.099427
	H7588	H	0.784537	0.216828	0.147974
	H7589	H	0.769731	0.216537	0.134126
	H7590	H	0.774853	0.282651	0.229707
	H7591	H	0.787640	0.283270	0.208272
	H7592	H	0.769795	0.532713	0.133797
	H7593	H	0.784662	0.532853	0.147636
	H7594	H	0.787683	-0.032441	0.208064
	H7595	H	0.774873	-0.033298	0.229409
	H7596	H	0.832347	-0.033063	0.196271
	H7597	H	0.847147	-0.032874	0.210116
	H7598	H	0.829270	0.532791	0.135747
	H7599	H	0.842208	0.532836	0.114617
	Al7600	Al	0.816480	-0.499898	0.328265
	Al7601	Al	0.816521	-0.249772	0.328279
	Al7602	Al	0.754074	-0.249834	0.265606
	Al7603	Al	0.754014	-0.499921	0.265709
	O7604	O	0.826760	-0.459274	0.340229
	O7605	O	0.816048	-0.374777	0.318618
	O7606	O	0.817013	-0.124658	0.337858
	O7607	O	0.868693	-0.459513	0.378823
	O7608	O	0.807526	-0.458937	0.345039
	O7609	O	0.770778	-0.459047	0.404634
	O7610	O	0.807509	-0.290669	0.345069
	O7611	O	0.806219	-0.209099	0.316373
	O7612	O	0.764418	-0.208793	0.277483
	O7613	O	0.826796	-0.290995	0.340188
	O7614	O	0.825548	-0.209005	0.311514
	O7615	O	0.861938	-0.209141	0.251300
	O7616	O	0.770683	-0.291105	0.404546
	O7617	O	0.806273	-0.041002	0.316250
	O7618	O	0.764321	-0.040830	0.277563
	O7619	O	0.861934	-0.040879	0.251339
	O7620	O	0.825575	-0.040776	0.311560
	O7621	O	0.868704	-0.291203	0.378821
	O7622	O	0.761160	-0.124933	0.411388
	O7623	O	0.871463	-0.374785	0.244196
	C7624	C	0.851944	-0.285962	0.363304
	C7625	C	0.856173	-0.375366	0.367343
	C7626	C	0.851884	-0.464539	0.363480
	C7627	C	0.843530	-0.464513	0.355759
	C7628	C	0.839295	-0.375286	0.351759
	C7629	C	0.843596	-0.286019	0.355566
	C7630	C	0.830320	-0.375253	0.343401
	C7631	C	0.865169	-0.375180	0.375681
	C7632	C	0.804394	-0.374787	0.349950
	C7633	C	0.796560	-0.374749	0.362814
	C7634	C	0.792819	-0.285587	0.368960
	C7635	C	0.785526	-0.285597	0.380828
	C7636	C	0.781739	-0.374699	0.386854
	C7637	C	0.785512	-0.463749	0.380778
	C7638	C	0.792804	-0.463733	0.368893
	C7639	C	0.773841	-0.375034	0.399628
	C7640	C	0.802703	-0.124988	0.313142
	C7641	C	0.793705	-0.124635	0.304818
	C7642	C	0.789462	-0.035665	0.300815
	C7643	C	0.781122	-0.035877	0.293028
	C7644	C	0.776857	-0.124821	0.289129
	C7645	C	0.781057	-0.213956	0.293222
	C7646	C	0.789405	-0.213700	0.300985
	C7647	C	0.767907	-0.124676	0.280710
	C7648	C	0.828640	-0.124927	0.306583
	C7649	C	0.836436	-0.125009	0.293612
	C7650	C	0.840126	-0.214216	0.287461
	C7651	C	0.847312	-0.214113	0.275412
	C7652	C	0.851032	-0.124928	0.269262
	C7653	C	0.847327	-0.035863	0.275419
	C7654	C	0.840135	-0.035875	0.287447
	C7655	C	0.858862	-0.124887	0.256319
	H7656	H	0.850124	-0.282886	0.270710
	H7657	H	0.837331	-0.283179	0.292164
	H7658	H	0.855266	-0.217109	0.366220
	H7659	H	0.840410	-0.217054	0.352441
	H7660	H	0.815584	-0.374753	0.307948
	H7661	H	0.817508	-0.124768	0.348513
	H7662	H	0.760630	-0.124742	0.400726
	H7663	H	0.872012	-0.374483	0.254825
	H7664	H	0.792581	-0.282351	0.304171
	H7665	H	0.777806	-0.282677	0.290213
	H7666	H	0.782704	-0.216485	0.385437
	H7667	H	0.795605	-0.216407	0.364255
	H7668	H	0.777922	0.033042	0.289893
	H7669	H	0.792705	0.032898	0.303900
	H7670	H	0.795568	-0.532772	0.364167
	H7671	H	0.782690	-0.532908	0.385411
	H7672	H	0.840254	-0.533344	0.352740
	H7673	H	0.855079	-0.533335	0.366581
	H7674	H	0.837356	0.033154	0.292160
	H7675	H	0.850119	0.033204	0.270759
	Al7676	Al	0.816522	0.000066	0.328247
	Al7677	Al	0.816536	0.250024	0.328264
	Al7678	Al	0.754055	0.249983	0.265641
	Al7679	Al	0.754027	0.000217	0.265646
	O7680	O	0.826821	0.041101	0.340219
	O7681	O	0.816022	0.125012	0.318590
	O7682	O	0.817011	0.375075	0.337868
	O7683	O	0.868660	0.041038	0.378982
	O7684	O	0.807503	0.040958	0.345011
	O7685	O	0.770673	0.041449	0.404474
	O7686	O	0.807582	0.208906	0.345063
	O7687	O	0.806202	0.291194	0.316345
	O7688	O	0.764341	0.290880	0.277553
	O7689	O	0.826821	0.209170	0.340118
	O7690	O	0.825510	0.290983	0.311497
	O7691	O	0.861917	0.291130	0.251317
	O7692	O	0.770718	0.209152	0.404569
	O7693	O	0.806238	0.459219	0.316310
	O7694	O	0.764336	0.459244	0.277652
	O7695	O	0.861972	0.459150	0.251382
	O7696	O	0.825522	0.458942	0.311521
	O7697	O	0.868743	0.209078	0.378875
	O7698	O	0.761216	0.375120	0.411332
	O7699	O	0.871432	0.125063	0.244235
	C7700	C	0.851977	0.214233	0.363367
	C7701	C	0.856200	0.125194	0.367354
	C7702	C	0.851922	0.036284	0.363431
	C7703	C	0.843572	0.036230	0.355690
	C7704	C	0.839340	0.125266	0.351723
	C7705	C	0.843626	0.214293	0.355602
	C7706	C	0.830357	0.125323	0.343346
	C7707	C	0.865161	0.125184	0.375756
	C7708	C	0.804449	0.124923	0.350004
	C7709	C	0.796589	0.125242	0.362872
	C7710	C	0.792818	0.214160	0.368923
	C7711	C	0.785510	0.214231	0.380782
	C7712	C	0.781748	0.125314	0.386864
	C7713	C	0.785507	0.036557	0.380801
	C7714	C	0.792813	0.036455	0.368932
	C7715	C	0.773851	0.125267	0.399650
	C7716	C	0.802698	0.375032	0.313148
	C7717	C	0.793708	0.375016	0.304760
	C7718	C	0.789450	0.464132	0.300810
	C7719	C	0.781092	0.464133	0.293057
	C7720	C	0.776830	0.375013	0.289164
	C7721	C	0.781084	0.285804	0.293101
	C7722	C	0.789442	0.285864	0.300853
	C7723	C	0.767878	0.375114	0.280757
	C7724	C	0.828605	0.375113	0.306529
	C7725	C	0.836404	0.374878	0.293621
	C7726	C	0.840077	0.286017	0.287393
	C7727	C	0.847297	0.286027	0.275364
	C7728	C	0.851032	0.375154	0.269278
	C7729	C	0.847363	0.464032	0.275505
	C7730	C	0.840138	0.463926	0.287535
	C7731	C	0.858849	0.375234	0.256330
	H7732	H	0.850067	0.217005	0.270646
	H7733	H	0.837266	0.216686	0.291972
	H7734	H	0.855256	0.282904	0.366256
	H7735	H	0.840410	0.283052	0.352486
	H7736	H	0.815590	0.125228	0.307843
	H7737	H	0.817540	0.375524	0.348539
	H7738	H	0.760855	0.375360	0.400643
	H7739	H	0.871916	0.125322	0.254866
	H7740	H	0.792699	0.217137	0.303879
	H7741	H	0.777862	0.216721	0.290113
	H7742	H	0.782717	0.283502	0.385391
	H7743	H	0.795662	0.282997	0.364298
	H7744	H	0.777873	0.532779	0.289991
	H7745	H	0.792730	0.532794	0.303723
	H7746	H	0.795656	-0.032721	0.364366
	H7747	H	0.782703	-0.032575	0.385485
	H7748	H	0.840292	-0.032671	0.352745
	H7749	H	0.855137	-0.032596	0.366533
	H7750	H	0.837404	0.533147	0.292295
	H7751	H	0.850173	0.533121	0.270923
	Al7752	Al	0.824084	-0.500030	0.483639
	Al7753	Al	0.824069	-0.250018	0.483654
	Al7754	Al	0.761562	-0.250126	0.421051
	Al7755	Al	0.761614	-0.500011	0.421123
	O7756	O	0.834308	-0.459064	0.495700
	O7757	O	0.823732	-0.374865	0.473992
	O7758	O	0.824461	-0.125017	0.493361
	O7759	O	0.876392	-0.459189	0.533985
	O7760	O	0.814879	-0.459332	0.500055
	O7761	O	0.775002	-0.459560	0.553896
	O7762	O	0.814826	-0.291096	0.500034
	O7763	O	0.813876	-0.208934	0.471566
	O7764	O	0.771791	-0.209107	0.433180
	O7765	O	0.834269	-0.290680	0.495796
	O7766	O	0.833225	-0.208795	0.467090
	O7767	O	0.870034	-0.208799	0.407594
	O7768	O	0.775011	-0.291572	0.553966
	O7769	O	0.813865	-0.040877	0.471506
	O7770	O	0.771768	-0.040705	0.433229
	O7771	O	0.870045	-0.040661	0.407613
	O7772	O	0.833260	-0.040872	0.467089
	O7773	O	0.876384	-0.291046	0.534003
	O7774	O	0.765118	-0.125347	0.558472
	O7775	O	0.879460	-0.375054	0.400384
	C7776	C	0.859514	-0.285804	0.518716
	C7777	C	0.863821	-0.375047	0.522551
	C7778	C	0.859528	-0.464403	0.518681
	C7779	C	0.851131	-0.464758	0.511040
	C7780	C	0.846849	-0.375383	0.507164
	C7781	C	0.851119	-0.286245	0.511084
	C7782	C	0.837832	-0.374845	0.498893
	C7783	C	0.872855	-0.375143	0.530824
	C7784	C	0.811528	-0.375189	0.504591
	C7785	C	0.803088	-0.375279	0.516411
	C7786	C	0.799029	-0.286252	0.521915
	C7787	C	0.791100	-0.286362	0.532639
	C7788	C	0.787048	-0.375345	0.538133
	C7789	C	0.791111	-0.464387	0.532638
	C7790	C	0.799031	-0.464298	0.521887
	C7791	C	0.778397	-0.375388	0.549536
	C7792	C	0.810338	-0.124864	0.468388
	C7793	C	0.801276	-0.124943	0.460178
	C7794	C	0.797006	-0.035873	0.456259
	C7795	C	0.788599	-0.035816	0.448606
	C7796	C	0.784320	-0.124898	0.444723
	C7797	C	0.788567	-0.213988	0.448738
	C7798	C	0.796955	-0.213931	0.456397
	C7799	C	0.775308	-0.124891	0.436388
	C7800	C	0.836363	-0.124914	0.462170
	C7801	C	0.844266	-0.124788	0.449394
	C7802	C	0.848036	-0.213686	0.443310
	C7803	C	0.855335	-0.213787	0.431473
	C7804	C	0.859062	-0.124817	0.425393
	C7805	C	0.855291	-0.035910	0.431475
	C7806	C	0.847981	-0.035715	0.443302
	C7807	C	0.866942	-0.124597	0.412557
	H7808	H	0.858189	-0.282712	0.426852
	H7809	H	0.845234	-0.282726	0.447958
	H7810	H	0.862762	-0.216857	0.521661
	H7811	H	0.847835	-0.217291	0.508144
	H7812	H	0.823570	-0.374838	0.463263
	H7813	H	0.824966	-0.124323	0.503979
	H7814	H	0.765314	-0.125604	0.547604
	H7815	H	0.879836	-0.375735	0.411060
	H7816	H	0.800181	-0.282794	0.459433
	H7817	H	0.785292	-0.283022	0.445811
	H7818	H	0.788015	-0.217360	0.536757
	H7819	H	0.802034	-0.217071	0.517673
	H7820	H	0.785355	0.032952	0.445599
	H7821	H	0.800298	0.032854	0.459168
	H7822	H	0.802048	-0.533195	0.517692
	H7823	H	0.788024	-0.533449	0.536782
	H7824	H	0.847838	-0.533793	0.508147
	H7825	H	0.862837	-0.533134	0.521616
	H7826	H	0.845141	0.033258	0.447907
	H7827	H	0.858116	0.033204	0.426846
	Al7828	Al	0.824115	0.000154	0.483618
	Al7829	Al	0.824075	0.249891	0.483637
	Al7830	Al	0.761571	0.250147	0.421112
	Al7831	Al	0.761594	0.000122	0.421116
	O7832	O	0.834277	0.040772	0.495824
	O7833	O	0.823687	0.125031	0.473937
	O7834	O	0.824456	0.374929	0.493318
	O7835	O	0.876394	0.041006	0.533917
	O7836	O	0.814806	0.041012	0.499962
	O7837	O	0.774965	0.040934	0.553833
	O7838	O	0.814822	0.209168	0.499981
	O7839	O	0.813877	0.291307	0.471492
	O7840	O	0.771737	0.291383	0.433258
	O7841	O	0.834256	0.208724	0.495793
	O7842	O	0.833229	0.291396	0.467079
	O7843	O	0.870075	0.291246	0.407544
	O7844	O	0.774977	0.208680	0.553905
	O7845	O	0.813846	0.459398	0.471539
	O7846	O	0.771780	0.459194	0.433247
	O7847	O	0.870100	0.459304	0.407591
	O7848	O	0.833210	0.458995	0.467013
	O7849	O	0.876367	0.209106	0.534106
	O7850	O	0.765132	0.374945	0.558484
	O7851	O	0.879531	0.124949	0.400439
	C7852	C	0.859524	0.214408	0.518677
	C7853	C	0.863831	0.125534	0.522571
	C7854	C	0.859580	0.036352	0.518624
	C7855	C	0.851168	0.036296	0.511033
	C7856	C	0.846828	0.125136	0.507268
	C7857	C	0.851109	0.214311	0.511090
	C7858	C	0.837804	0.124882	0.498988
	C7859	C	0.872842	0.125074	0.530878
	C7860	C	0.811497	0.125222	0.504530
	C7861	C	0.803058	0.124956	0.516346
	C7862	C	0.799032	0.213826	0.521903
	C7863	C	0.791121	0.213882	0.532678
	C7864	C	0.787053	0.124986	0.538111
	C7865	C	0.791117	0.036266	0.532633
	C7866	C	0.799015	0.036114	0.521853
	C7867	C	0.778394	0.124972	0.549513
	C7868	C	0.810320	0.375225	0.468398
	C7869	C	0.801279	0.375227	0.460177
	C7870	C	0.797018	0.464294	0.456203
	C7871	C	0.788633	0.464344	0.448567
	C7872	C	0.784303	0.375382	0.444767
	C7873	C	0.788556	0.286270	0.448744
	C7874	C	0.796963	0.286255	0.456367
	C7875	C	0.775298	0.375144	0.436443
	C7876	C	0.836347	0.375419	0.462112
	C7877	C	0.844260	0.375029	0.449308
	C7878	C	0.848001	0.286194	0.443237
	C7879	C	0.855310	0.286269	0.431372
	C7880	C	0.859099	0.375120	0.425327
	C7881	C	0.855368	0.463801	0.431426
	C7882	C	0.848056	0.463886	0.443281
	C7883	C	0.866962	0.375237	0.412516
	H7884	H	0.858105	0.217012	0.426767
	H7885	H	0.845151	0.217239	0.447798
	H7886	H	0.862781	0.283076	0.521669
	H7887	H	0.847832	0.283189	0.508095
	H7888	H	0.823191	0.125003	0.463327
	H7889	H	0.824719	0.375727	0.504010
	H7890	H	0.765389	0.374543	0.547683
	H7891	H	0.879959	0.124618	0.411143
	H7892	H	0.800192	0.217469	0.459452
	H7893	H	0.785275	0.217742	0.445825
	H7894	H	0.788053	0.283020	0.536849
	H7895	H	0.802093	0.282735	0.517733
	H7896	H	0.785447	0.533136	0.445462
	H7897	H	0.800307	0.533237	0.459136
	H7898	H	0.802065	-0.032775	0.517681
	H7899	H	0.788069	-0.032767	0.536841
	H7900	H	0.847927	-0.032696	0.507981
	H7901	H	0.862854	-0.032359	0.521545
	H7902	H	0.845248	0.532992	0.447882
	H7903	H	0.858220	0.532869	0.426891
	Al7904	Al	0.827365	-0.500163	0.630790
	Al7905	Al	0.827330	-0.249241	0.630875
	Al7906	Al	0.764782	-0.250702	0.568425
	Al7907	Al	0.764795	-0.499625	0.568432
	O7908	O	0.836757	-0.459263	0.644566
	O7909	O	0.827654	-0.374725	0.620855
	O7910	O	0.826642	-0.124792	0.640745
	O7911	O	0.880291	-0.459079	0.679448
	O7912	O	0.816139	-0.458921	0.643384
	O7913	O	0.766758	-0.459427	0.638185
	O7914	O	0.816111	-0.290567	0.643426
	O7915	O	0.817838	-0.208790	0.616830
	O7916	O	0.774166	-0.209399	0.582287
	O7917	O	0.836721	-0.290989	0.644662
	O7918	O	0.837542	-0.208569	0.616299
	O7919	O	0.877372	-0.208629	0.562464
	O7920	O	0.766762	-0.291185	0.638132
	O7921	O	0.817896	-0.040793	0.616741
	O7922	O	0.774144	-0.041273	0.582261
	O7923	O	0.877350	-0.040676	0.562381
	O7924	O	0.837556	-0.040635	0.616287
	O7925	O	0.880342	-0.291055	0.679394
	O7926	O	0.756187	-0.125195	0.638986
	O7927	O	0.886966	-0.375217	0.555801
	C7928	C	0.862868	-0.285104	0.665350
	C7929	C	0.867397	-0.374805	0.668701
	C7930	C	0.862890	-0.464583	0.665346
	C7931	C	0.854143	-0.464693	0.658711
	C7932	C	0.849650	-0.375077	0.655280
	C7933	C	0.854119	-0.285289	0.658698
	C7934	C	0.840393	-0.374994	0.647566
	C7935	C	0.876675	-0.375013	0.676423
	C7936	C	0.811924	-0.374780	0.643254
	C7937	C	0.801309	-0.375174	0.642506
	C7938	C	0.796324	-0.285381	0.641542
	C7939	C	0.786583	-0.285487	0.639741
	C7940	C	0.781588	-0.375296	0.638842
	C7941	C	0.786588	-0.465065	0.639759
	C7942	C	0.796318	-0.464987	0.641538
	C7943	C	0.770949	-0.375319	0.638308
	C7944	C	0.814241	-0.124755	0.613747
	C7945	C	0.804929	-0.124795	0.606083
	C7946	C	0.800395	-0.035424	0.602751
	C7947	C	0.791599	-0.035480	0.596215
	C7948	C	0.787114	-0.125031	0.592853
	C7949	C	0.791635	-0.214348	0.596184
	C7950	C	0.800425	-0.214308	0.602712
	C7951	C	0.777816	-0.125242	0.585204
	C7952	C	0.840972	-0.124680	0.611940
	C7953	C	0.849585	-0.124670	0.600532
	C7954	C	0.853667	-0.213572	0.595051
	C7955	C	0.861567	-0.213616	0.584288
	C7956	C	0.865601	-0.124605	0.578794
	C7957	C	0.861520	-0.035642	0.584286
	C7958	C	0.853634	-0.035680	0.595056
	C7959	C	0.874019	-0.124455	0.566977
	H7960	H	0.864601	-0.282742	0.580041
	H7961	H	0.850591	-0.282550	0.599228
	H7962	H	0.866206	-0.215366	0.668012
	H7963	H	0.850724	-0.215938	0.656096
	H7964	H	0.827858	-0.374829	0.610037
	H7965	H	0.825353	-0.125044	0.651337
	H7966	H	0.757788	-0.125208	0.628382
	H7967	H	0.887176	-0.375605	0.566472
	H7968	H	0.803808	-0.284087	0.605264
	H7969	H	0.788279	-0.284087	0.593558
	H7970	H	0.782827	-0.215603	0.638972
	H7971	H	0.800072	-0.215436	0.642174
	H7972	H	0.788215	0.033992	0.593630
	H7973	H	0.803748	0.034360	0.605335
	H7974	H	0.800089	-0.534824	0.642128
	H7975	H	0.782829	-0.535068	0.638949
	H7976	H	0.850783	-0.534207	0.656139
	H7977	H	0.866242	-0.534413	0.668017
	H7978	H	0.850564	0.033284	0.599206
	H7979	H	0.864550	0.033351	0.580038
	Al7980	Al	0.827313	-0.000190	0.630844
	Al7981	Al	0.827330	0.250599	0.630873
	Al7982	Al	0.764744	0.249696	0.568482
	Al7983	Al	0.764774	0.000440	0.568427
	O7984	O	0.836702	0.041156	0.644674
	O7985	O	0.827725	0.125383	0.620829
	O7986	O	0.826626	0.375370	0.640680
	O7987	O	0.880380	0.041415	0.679315
	O7988	O	0.816097	0.041062	0.643348
	O7989	O	0.766797	0.040662	0.638108
	O7990	O	0.816130	0.209163	0.643430
	O7991	O	0.817839	0.291188	0.616755
	O7992	O	0.774150	0.291440	0.582203
	O7993	O	0.836732	0.209371	0.644626
	O7994	O	0.837540	0.291278	0.616273
	O7995	O	0.877370	0.290897	0.562511
	O7996	O	0.766752	0.208785	0.638082
	O7997	O	0.817881	0.459235	0.616677
	O7998	O	0.774204	0.459377	0.582144
	O7999	O	0.877380	0.458987	0.562522
	O8000	O	0.837488	0.459004	0.616171
	O8001	O	0.880296	0.209475	0.679391
	O8002	O	0.756188	0.374543	0.639011
	O8003	O	0.886938	0.125174	0.555795
	C8004	C	0.862926	0.214772	0.665247
	C8005	C	0.867387	0.125263	0.668687
	C8006	C	0.862902	0.035773	0.665273
	C8007	C	0.854150	0.035707	0.658649
	C8008	C	0.849650	0.125240	0.655342
	C8009	C	0.854174	0.214668	0.658617
	C8010	C	0.840355	0.125232	0.647626
	C8011	C	0.876704	0.125369	0.676372
	C8012	C	0.811913	0.125176	0.643328
	C8013	C	0.801296	0.125195	0.642609
	C8014	C	0.796305	0.215104	0.641611
	C8015	C	0.786594	0.215067	0.639751
	C8016	C	0.781569	0.125171	0.638878
	C8017	C	0.786579	0.035196	0.639747
	C8018	C	0.796297	0.035267	0.641589
	C8019	C	0.770948	0.124842	0.638290
	C8020	C	0.814214	0.375278	0.613734
	C8021	C	0.804966	0.375367	0.606007
	C8022	C	0.800403	0.464871	0.602685
	C8023	C	0.791647	0.464840	0.596062
	C8024	C	0.787148	0.375167	0.592668
	C8025	C	0.791690	0.285633	0.595992
	C8026	C	0.800443	0.285870	0.602609
	C8027	C	0.777859	0.375104	0.585102
	C8028	C	0.840927	0.374966	0.611855
	C8029	C	0.849552	0.375057	0.600460
	C8030	C	0.853638	0.286225	0.595031
	C8031	C	0.861561	0.286331	0.584336
	C8032	C	0.865616	0.375090	0.578825
	C8033	C	0.861567	0.464034	0.584341
	C8034	C	0.853638	0.463981	0.595005
	C8035	C	0.874055	0.374999	0.567023
	H8036	H	0.864630	0.217490	0.580118
	H8037	H	0.850595	0.217185	0.599201
	H8038	H	0.866299	0.284267	0.667731
	H8039	H	0.850791	0.284159	0.656062
	H8040	H	0.828138	0.125040	0.610001
	H8041	H	0.825266	0.375703	0.651315
	H8042	H	0.757718	0.374531	0.628348
	H8043	H	0.887021	0.124770	0.566530
	H8044	H	0.803793	0.216296	0.605254
	H8045	H	0.788299	0.215986	0.593436
	H8046	H	0.782834	0.284965	0.638901
	H8047	H	0.800073	0.284994	0.642306
	H8048	H	0.788226	0.534272	0.593526
	H8049	H	0.803735	0.534581	0.605365
	H8050	H	0.800060	-0.034879	0.642198
	H8051	H	0.782817	-0.034825	0.638873
	H8052	H	0.850776	-0.033953	0.656098
	H8053	H	0.866289	-0.033799	0.667818
	H8054	H	0.850575	0.532876	0.599187
	H8055	H	0.864616	0.533105	0.580166
	Al8056	Al	0.817544	-0.499950	0.711422
	Al8057	Al	0.817552	-0.249950	0.711531
	Al8058	Al	0.755030	-0.250246	0.648999
	Al8059	Al	0.755036	-0.500609	0.649022
	O8060	O	0.826442	-0.458745	0.726485
	O8061	O	0.818708	-0.374938	0.701501
	O8062	O	0.816360	-0.125273	0.721583
	O8063	O	0.871109	-0.459134	0.758945
	O8064	O	0.805829	-0.459301	0.722273
	O8065	O	0.756654	-0.458705	0.715191
	O8066	O	0.805860	-0.291383	0.722490
	O8067	O	0.808667	-0.208961	0.696418
	O8068	O	0.763960	-0.209094	0.663920
	O8069	O	0.826438	-0.290768	0.726482
	O8070	O	0.829248	-0.209088	0.700670
	O8071	O	0.878597	-0.208818	0.706108
	O8072	O	0.756675	-0.290689	0.715116
	O8073	O	0.808617	-0.041225	0.696519
	O8074	O	0.763956	-0.041488	0.663997
	O8075	O	0.878546	-0.040452	0.705831
	O8076	O	0.829270	-0.040818	0.700742
	O8077	O	0.871149	-0.291227	0.758892
	O8078	O	0.746176	-0.124562	0.715921
	O8079	O	0.889080	-0.374885	0.703340
	C8080	C	0.853370	-0.285511	0.745392
	C8081	C	0.857983	-0.375180	0.748559
	C8082	C	0.853297	-0.464745	0.745501
	C8083	C	0.844319	-0.464571	0.739611
	C8084	C	0.839682	-0.374868	0.736534
	C8085	C	0.844383	-0.285400	0.739534
	C8086	C	0.830178	-0.374846	0.729345
	C8087	C	0.867423	-0.375032	0.755995
	C8088	C	0.801637	-0.375308	0.722113
	C8089	C	0.791056	-0.375145	0.721026
	C8090	C	0.786096	-0.285235	0.719886
	C8091	C	0.776421	-0.285010	0.717595
	C8092	C	0.771443	-0.374845	0.716511
	C8093	C	0.776387	-0.464944	0.717676
	C8094	C	0.786067	-0.465007	0.719939
	C8095	C	0.760858	-0.374814	0.715435
	C8096	C	0.804936	-0.125194	0.693503
	C8097	C	0.795481	-0.125259	0.686140
	C8098	C	0.790829	-0.035696	0.683032
	C8099	C	0.781827	-0.035715	0.677156
	C8100	C	0.777180	-0.125351	0.674066
	C8101	C	0.781847	-0.214926	0.677128
	C8102	C	0.790854	-0.214841	0.682998
	C8103	C	0.767684	-0.125305	0.666806
	C8104	C	0.833446	-0.125030	0.700840
	C8105	C	0.844081	-0.124990	0.701390
	C8106	C	0.849065	-0.214819	0.702369
	C8107	C	0.858791	-0.214784	0.704254
	C8108	C	0.863765	-0.124778	0.705157
	C8109	C	0.858797	-0.034883	0.704047
	C8110	C	0.849074	-0.034941	0.702175
	C8111	C	0.874378	-0.124697	0.705863
	H8112	H	0.862550	-0.284739	0.705073
	H8113	H	0.845324	-0.284802	0.701735
	H8114	H	0.856862	-0.215246	0.747549
	H8115	H	0.840957	-0.215007	0.737245
	H8116	H	0.820257	-0.374893	0.690927
	H8117	H	0.814926	-0.125929	0.732202
	H8118	H	0.747771	-0.124547	0.705367
	H8119	H	0.887582	-0.374955	0.713881
	H8120	H	0.794308	-0.284973	0.685194
	H8121	H	0.778389	-0.285074	0.674849
	H8122	H	0.772703	-0.214989	0.716676
	H8123	H	0.789817	-0.215175	0.720777
	H8124	H	0.778401	0.034417	0.674970
	H8125	H	0.794283	0.034485	0.685247
	H8126	H	0.789751	-0.535111	0.720900
	H8127	H	0.772630	-0.534979	0.716801
	H8128	H	0.840847	-0.534640	0.737363
	H8129	H	0.856760	-0.535037	0.747761
	H8130	H	0.845322	0.035014	0.701353
	H8131	H	0.862542	0.035097	0.704737
	Al8132	Al	0.817542	-0.000319	0.711657
	Al8133	Al	0.817546	0.249878	0.711493
	Al8134	Al	0.755003	0.249704	0.649033
	Al8135	Al	0.755069	-0.000169	0.649003
	O8136	O	0.826474	0.041106	0.726588
	O8137	O	0.818708	0.124686	0.701613
	O8138	O	0.816384	0.374680	0.721506
	O8139	O	0.871198	0.041176	0.758784
	O8140	O	0.805817	0.040889	0.722526
	O8141	O	0.756658	0.041459	0.714830
	O8142	O	0.805832	0.208918	0.722511
	O8143	O	0.808719	0.290537	0.696314
	O8144	O	0.764002	0.290808	0.663949
	O8145	O	0.826482	0.209044	0.726531
	O8146	O	0.829269	0.290712	0.700508
	O8147	O	0.878637	0.291347	0.706147
	O8148	O	0.756670	0.209602	0.715053
	O8149	O	0.808668	0.458630	0.696408
	O8150	O	0.763955	0.458394	0.664069
	O8151	O	0.878581	0.459578	0.706052
	O8152	O	0.829267	0.458827	0.700519
	O8153	O	0.871171	0.209011	0.758859
	O8154	O	0.746126	0.375366	0.716022
	O8155	O	0.889130	0.125034	0.703251
	C8156	C	0.853362	0.214563	0.745465
	C8157	C	0.858001	0.124832	0.748521
	C8158	C	0.853335	0.035217	0.745505
	C8159	C	0.844342	0.035397	0.739646
	C8160	C	0.839710	0.125181	0.736575
	C8161	C	0.844374	0.214730	0.739602
	C8162	C	0.830199	0.125071	0.729398
	C8163	C	0.867475	0.124995	0.755922
	C8164	C	0.801636	0.124840	0.722185
	C8165	C	0.791029	0.124951	0.721097
	C8166	C	0.786071	0.214801	0.719979
	C8167	C	0.776398	0.214971	0.717670
	C8168	C	0.771425	0.125213	0.716465
	C8169	C	0.776379	0.035272	0.717612
	C8170	C	0.786051	0.035082	0.719915
	C8171	C	0.760843	0.125447	0.715320
	C8172	C	0.804983	0.374581	0.693465
	C8173	C	0.795510	0.374502	0.686160
	C8174	C	0.790823	0.464195	0.683185
	C8175	C	0.781830	0.464310	0.677320
	C8176	C	0.777206	0.374685	0.674159
	C8177	C	0.781917	0.285047	0.677053
	C8178	C	0.790917	0.284901	0.682896
	C8179	C	0.767701	0.374536	0.666886
	C8180	C	0.833467	0.374751	0.700641
	C8181	C	0.844073	0.374725	0.701327
	C8182	C	0.849077	0.284937	0.702230
	C8183	C	0.858808	0.284883	0.704132
	C8184	C	0.863797	0.374819	0.705110
	C8185	C	0.858784	0.464484	0.704170
	C8186	C	0.849059	0.464586	0.702277
	C8187	C	0.874392	0.375264	0.705957
	H8188	H	0.862580	0.214919	0.704888
	H8189	H	0.845340	0.214940	0.701436
	H8190	H	0.856845	0.284591	0.747625
	H8191	H	0.840945	0.284911	0.737257
	H8192	H	0.820181	0.124727	0.691013
	H8193	H	0.814957	0.375456	0.732046
	H8194	H	0.747866	0.376004	0.705497
	H8195	H	0.887621	0.125339	0.713886
	H8196	H	0.794409	0.214854	0.685029
	H8197	H	0.778488	0.214726	0.674734
	H8198	H	0.772688	0.285177	0.716764
	H8199	H	0.789812	0.284646	0.720862
	H8200	H	0.778320	0.534243	0.675175
	H8201	H	0.794229	0.534497	0.685534
	H8202	H	0.789797	-0.035076	0.720821
	H8203	H	0.772631	-0.034768	0.716687
	H8204	H	0.840887	-0.034599	0.737383
	H8205	H	0.856777	-0.034909	0.747739
	H8206	H	0.845317	0.534651	0.701550
	H8207	H	0.862504	0.534799	0.704975
	Al8208	Al	0.807433	-0.499501	0.788445
	Al8209	Al	0.807393	-0.249916	0.788487
	Al8210	Al	0.744969	-0.249551	0.725940
	Al8211	Al	0.744940	-0.499722	0.726063
	O8212	O	0.816279	-0.459168	0.803659
	O8213	O	0.808595	-0.374948	0.778488
	O8214	O	0.806285	-0.124853	0.798479
	O8215	O	0.860996	-0.458484	0.836076
	O8216	O	0.795694	-0.458945	0.799343
	O8217	O	0.746389	-0.459269	0.794057
	O8218	O	0.795708	-0.290937	0.799405
	O8219	O	0.798571	-0.208702	0.773319
	O8220	O	0.753786	-0.208024	0.741182
	O8221	O	0.816247	-0.291582	0.803607
	O8222	O	0.819111	-0.208889	0.777631
	O8223	O	0.868307	-0.208885	0.784854
	O8224	O	0.746378	-0.290958	0.794244
	O8225	O	0.798496	-0.040946	0.773537
	O8226	O	0.753939	-0.040323	0.740886
	O8227	O	0.868300	-0.040699	0.784826
	O8228	O	0.819122	-0.040671	0.777583
	O8229	O	0.861011	-0.290617	0.835920
	O8230	O	0.735857	-0.125250	0.796817
	O8231	O	0.878866	-0.375071	0.783965
	C8232	C	0.843086	-0.285264	0.822816
	C8233	C	0.847725	-0.374811	0.825963
	C8234	C	0.843048	-0.464309	0.822958
	C8235	C	0.834050	-0.464339	0.817124
	C8236	C	0.829420	-0.374743	0.813965
	C8237	C	0.834090	-0.285225	0.816975
	C8238	C	0.819961	-0.375237	0.806600
	C8239	C	0.857275	-0.374626	0.833164
	C8240	C	0.791514	-0.374969	0.799235
	C8241	C	0.780889	-0.374939	0.798635
	C8242	C	0.775891	-0.285187	0.797669
	C8243	C	0.766177	-0.285065	0.795808
	C8244	C	0.761178	-0.374988	0.794930
	C8245	C	0.766159	-0.464893	0.795886
	C8246	C	0.775889	-0.464888	0.797743
	C8247	C	0.750587	-0.375042	0.794259
	C8248	C	0.794808	-0.124722	0.770608
	C8249	C	0.785275	-0.124416	0.763458
	C8250	C	0.780607	-0.034792	0.760453
	C8251	C	0.771622	-0.034705	0.754576
	C8252	C	0.766973	-0.124404	0.751478
	C8253	C	0.771639	-0.213939	0.754513
	C8254	C	0.780632	-0.214014	0.760374
	C8255	C	0.757556	-0.124267	0.744028
	C8256	C	0.823323	-0.124801	0.777949
	C8257	C	0.833904	-0.124812	0.779037
	C8258	C	0.838881	-0.214767	0.780044
	C8259	C	0.848570	-0.214711	0.782278
	C8260	C	0.853539	-0.124742	0.783479
	C8261	C	0.848569	-0.034782	0.782406
	C8262	C	0.838883	-0.034785	0.780190
	C8263	C	0.864119	-0.124777	0.784544
	H8264	H	0.852332	-0.284899	0.783092
	H8265	H	0.835177	-0.284947	0.779113
	H8266	H	0.846528	-0.215034	0.824949
	H8267	H	0.830620	-0.215240	0.814655
	H8268	H	0.810153	-0.374660	0.767892
	H8269	H	0.804802	-0.124600	0.809122
	H8270	H	0.737100	-0.126024	0.786112
	H8271	H	0.877412	-0.374771	0.794585
	H8272	H	0.784106	-0.284159	0.762521
	H8273	H	0.768199	-0.284061	0.752191
	H8274	H	0.762473	-0.215056	0.795044
	H8275	H	0.779676	-0.215149	0.798392
	H8276	H	0.768183	0.035582	0.752294
	H8277	H	0.784095	0.035272	0.762669
	H8278	H	0.779620	-0.534836	0.798507
	H8279	H	0.762381	-0.534609	0.795202
	H8280	H	0.830615	-0.534511	0.814928
	H8281	H	0.846529	-0.534271	0.825248
	H8282	H	0.835111	0.035148	0.779369
	H8283	H	0.852276	0.035621	0.783331
	Al8284	Al	0.807431	0.000430	0.788473
	Al8285	Al	0.807394	0.250197	0.788471
	Al8286	Al	0.744912	0.250153	0.725970
	Al8287	Al	0.744967	0.000280	0.725874
	O8288	O	0.816298	0.041204	0.803604
	O8289	O	0.808547	0.125130	0.778494
	O8290	O	0.806299	0.375418	0.798449
	O8291	O	0.861006	0.041627	0.835992
	O8292	O	0.795726	0.041224	0.799471
	O8293	O	0.746424	0.040934	0.794126
	O8294	O	0.795720	0.209415	0.799482
	O8295	O	0.798512	0.291105	0.773323
	O8296	O	0.753804	0.291128	0.741094
	O8297	O	0.816270	0.208884	0.803636
	O8298	O	0.819134	0.291307	0.777691
	O8299	O	0.868312	0.290660	0.784890
	O8300	O	0.746398	0.209137	0.794027
	O8301	O	0.798509	0.458891	0.773429
	O8302	O	0.753781	0.459015	0.741148
	O8303	O	0.868346	0.458752	0.784864
	O8304	O	0.819150	0.459189	0.777606
	O8305	O	0.861007	0.209388	0.835932
	O8306	O	0.735818	0.374957	0.796699
	O8307	O	0.878877	0.124918	0.784039
	C8308	C	0.843103	0.215168	0.822886
	C8309	C	0.847774	0.125683	0.825897
	C8310	C	0.843144	0.035979	0.822881
	C8311	C	0.834144	0.036049	0.817023
	C8312	C	0.829474	0.125400	0.813909
	C8313	C	0.834094	0.215164	0.817013
	C8314	C	0.819997	0.125191	0.806554
	C8315	C	0.857282	0.125525	0.833097
	C8316	C	0.791536	0.125298	0.799293
	C8317	C	0.780930	0.125446	0.798639
	C8318	C	0.775947	0.215479	0.797622
	C8319	C	0.766226	0.215237	0.795738
	C8320	C	0.761233	0.125435	0.794845
	C8321	C	0.766209	0.035554	0.795839
	C8322	C	0.775919	0.035590	0.797734
	C8323	C	0.750616	0.125113	0.794183
	C8324	C	0.794805	0.375043	0.770501
	C8325	C	0.785251	0.375153	0.763354
	C8326	C	0.780585	0.464703	0.760396
	C8327	C	0.771587	0.464813	0.754571
	C8328	C	0.766962	0.375214	0.751408
	C8329	C	0.771602	0.285617	0.754469
	C8330	C	0.780596	0.285577	0.760277
	C8331	C	0.757480	0.375070	0.744093
	C8332	C	0.823354	0.375198	0.777907
	C8333	C	0.833917	0.375256	0.778987
	C8334	C	0.838898	0.285467	0.780068
	C8335	C	0.848586	0.285338	0.782309
	C8336	C	0.853553	0.375157	0.783471
	C8337	C	0.848562	0.464906	0.782319
	C8338	C	0.838887	0.465164	0.780078
	C8339	C	0.864112	0.374743	0.784541
	H8340	H	0.852284	0.215252	0.783274
	H8341	H	0.835128	0.215630	0.779209
	H8342	H	0.846566	0.285126	0.825169
	H8343	H	0.830664	0.285431	0.814821
	H8344	H	0.810040	0.125325	0.767860
	H8345	H	0.804960	0.375148	0.809102
	H8346	H	0.737144	0.374859	0.786079
	H8347	H	0.877356	0.124606	0.794662
	H8348	H	0.784061	0.215681	0.762507
	H8349	H	0.768150	0.215607	0.752247
	H8350	H	0.762436	0.284996	0.795049
	H8351	H	0.779667	0.285591	0.798392
	H8352	H	0.768093	0.534794	0.752439
	H8353	H	0.784024	0.534847	0.762695
	H8354	H	0.779671	-0.034403	0.798582
	H8355	H	0.762454	-0.034518	0.795251
	H8356	H	0.830681	-0.034176	0.814820
	H8357	H	0.846588	-0.034263	0.825102
	H8358	H	0.835167	0.535150	0.779274
	H8359	H	0.852277	0.534899	0.783318
	Al8360	Al	0.797668	-0.499934	0.869131
	Al8361	Al	0.797668	-0.250490	0.869137
	Al8362	Al	0.735130	-0.249780	0.806743
	Al8363	Al	0.735132	-0.500916	0.806598
	O8364	O	0.807099	-0.458793	0.883227
	O8365	O	0.798411	-0.375036	0.859266
	O8366	O	0.797286	-0.125350	0.879129
	O8367	O	0.850713	-0.459200	0.918036
	O8368	O	0.787405	-0.459408	0.883601
	O8369	O	0.747743	-0.459380	0.937712
	O8370	O	0.787444	-0.291470	0.883700
	O8371	O	0.788223	-0.209000	0.855540
	O8372	O	0.744638	-0.208756	0.820766
	O8373	O	0.807187	-0.290565	0.883122
	O8374	O	0.808901	-0.209207	0.856594
	O8375	O	0.858244	-0.208874	0.861962
	O8376	O	0.747673	-0.291273	0.937621
	O8377	O	0.788218	-0.041054	0.855549
	O8378	O	0.744678	-0.040773	0.820702
	O8379	O	0.858242	-0.040591	0.861966
	O8380	O	0.808869	-0.041117	0.856583
	O8381	O	0.850757	-0.291126	0.917909
	O8382	O	0.738070	-0.125068	0.944320
	O8383	O	0.868844	-0.374449	0.861003
	C8384	C	0.833324	-0.285614	0.903906
	C8385	C	0.837796	-0.375090	0.907290
	C8386	C	0.833320	-0.464466	0.903888
	C8387	C	0.824553	-0.464530	0.897262
	C8388	C	0.820067	-0.374952	0.893895
	C8389	C	0.824561	-0.285545	0.897280
	C8390	C	0.810766	-0.374950	0.886154
	C8391	C	0.847090	-0.375053	0.915003
	C8392	C	0.783997	-0.375518	0.888005
	C8393	C	0.775406	-0.375222	0.899463
	C8394	C	0.771320	-0.286162	0.904883
	C8395	C	0.763423	-0.286140	0.915643
	C8396	C	0.759416	-0.375145	0.921255
	C8397	C	0.763508	-0.464192	0.915829
	C8398	C	0.771397	-0.464201	0.905046
	C8399	C	0.751015	-0.375411	0.933141
	C8400	C	0.784586	-0.124921	0.852534
	C8401	C	0.775322	-0.125250	0.844819
	C8402	C	0.770836	-0.035628	0.841425
	C8403	C	0.762104	-0.035650	0.834752
	C8404	C	0.757624	-0.125019	0.831300
	C8405	C	0.762115	-0.214669	0.834675
	C8406	C	0.770848	-0.214618	0.841345
	C8407	C	0.748296	-0.125003	0.823715
	C8408	C	0.813116	-0.124971	0.856733
	C8409	C	0.823723	-0.124826	0.857460
	C8410	C	0.828716	-0.214520	0.858495
	C8411	C	0.838437	-0.214459	0.860345
	C8412	C	0.843442	-0.124662	0.861182
	C8413	C	0.838451	-0.034885	0.860225
	C8414	C	0.828732	-0.035093	0.858365
	C8415	C	0.854060	-0.124735	0.861808
	H8416	H	0.842209	-0.284192	0.861107
	H8417	H	0.824988	-0.284646	0.857819
	H8418	H	0.836705	-0.216200	0.906449
	H8419	H	0.821234	-0.215923	0.894668
	H8420	H	0.799919	-0.374997	0.848616
	H8421	H	0.797056	-0.126166	0.889930
	H8422	H	0.737719	-0.125609	0.933698
	H8423	H	0.867408	-0.373912	0.871612
	H8424	H	0.774233	-0.284385	0.843926
	H8425	H	0.758748	-0.284450	0.832086
	H8426	H	0.760369	-0.217336	0.919859
	H8427	H	0.774351	-0.217263	0.900650
	H8428	H	0.758712	0.034045	0.832209
	H8429	H	0.774214	0.033808	0.844010
	H8430	H	0.774499	-0.533156	0.900952
	H8431	H	0.760502	-0.533230	0.920134
	H8432	H	0.821192	-0.534079	0.894622
	H8433	H	0.836691	-0.533877	0.906429
	H8434	H	0.824964	0.034754	0.857595
	H8435	H	0.842193	0.035225	0.860906
	Al8436	Al	0.797662	0.000120	0.869198
	Al8437	Al	0.797650	0.249376	0.869180
	Al8438	Al	0.735166	0.250059	0.806613
	Al8439	Al	0.735173	-0.000736	0.806610
	O8440	O	0.807192	0.040464	0.883210
	O8441	O	0.798404	0.124762	0.859329
	O8442	O	0.797339	0.374998	0.879124
	O8443	O	0.850768	0.041245	0.917872
	O8444	O	0.787467	0.041261	0.883748
	O8445	O	0.747671	0.041345	0.937695
	O8446	O	0.787395	0.209314	0.883672
	O8447	O	0.788260	0.290515	0.855424
	O8448	O	0.744682	0.290762	0.820548
	O8449	O	0.807131	0.208779	0.883235
	O8450	O	0.808891	0.290595	0.856593
	O8451	O	0.858188	0.291450	0.861923
	O8452	O	0.747687	0.209183	0.937613
	O8453	O	0.788268	0.458672	0.855411
	O8454	O	0.744676	0.458926	0.820594
	O8455	O	0.858207	0.459292	0.861860
	O8456	O	0.808855	0.458897	0.856507
	O8457	O	0.850732	0.209324	0.918069
	O8458	O	0.737993	0.374610	0.944233
	O8459	O	0.868760	0.125565	0.861039
	C8460	C	0.833280	0.214502	0.904028
	C8461	C	0.837789	0.124967	0.907357
	C8462	C	0.833327	0.035174	0.903979
	C8463	C	0.824580	0.035285	0.897319
	C8464	C	0.820087	0.124926	0.893876
	C8465	C	0.824532	0.214685	0.897362
	C8466	C	0.810782	0.124583	0.886226
	C8467	C	0.847096	0.125260	0.914997
	C8468	C	0.784029	0.125090	0.888068
	C8469	C	0.775411	0.125102	0.899488
	C8470	C	0.771344	0.214131	0.904969
	C8471	C	0.763456	0.214094	0.915733
	C8472	C	0.759428	0.125026	0.921271
	C8473	C	0.763448	0.036123	0.915720
	C8474	C	0.771338	0.036049	0.904947
	C8475	C	0.750990	0.125302	0.933085
	C8476	C	0.784577	0.374794	0.852546
	C8477	C	0.775268	0.374951	0.844955
	C8478	C	0.770786	0.464492	0.841512
	C8479	C	0.762051	0.464443	0.834862
	C8480	C	0.757555	0.374824	0.831431
	C8481	C	0.762067	0.285288	0.834823
	C8482	C	0.770803	0.285314	0.841505
	C8483	C	0.748271	0.374789	0.823663
	C8484	C	0.813074	0.374879	0.856689
	C8485	C	0.823660	0.374668	0.857411
	C8486	C	0.828664	0.284884	0.858417
	C8487	C	0.838382	0.285263	0.860293
	C8488	C	0.843367	0.375283	0.861162
	C8489	C	0.838355	0.464916	0.860179
	C8490	C	0.828631	0.464628	0.858322
	C8491	C	0.853985	0.375397	0.861752
	H8492	H	0.842107	0.215356	0.861097
	H8493	H	0.824893	0.215014	0.857737
	H8494	H	0.836638	0.284031	0.906667
	H8495	H	0.821144	0.284307	0.894849
	H8496	H	0.799878	0.125001	0.848678
	H8497	H	0.796965	0.374997	0.889949
	H8498	H	0.737805	0.374143	0.933511
	H8499	H	0.867406	0.125817	0.871681
	H8500	H	0.774179	0.215881	0.844115
	H8501	H	0.758681	0.215731	0.832219
	H8502	H	0.760407	0.283239	0.919964
	H8503	H	0.774394	0.283204	0.900786
	H8504	H	0.758674	0.534267	0.832292
	H8505	H	0.774170	0.533867	0.844132
	H8506	H	0.774380	-0.032967	0.900767
	H8507	H	0.760386	-0.032913	0.919901
	H8508	H	0.821230	-0.034440	0.894749
	H8509	H	0.836714	-0.034434	0.906562
	H8510	H	0.824898	0.534648	0.857549
	H8511	H	0.842123	0.534628	0.860908
	Al8512	Al	0.922651	-0.499630	-0.005753
	Al8513	Al	0.922648	-0.250358	-0.005726
	Al8514	Al	0.860137	-0.249631	-0.068336
	Al8515	Al	0.860114	-0.500536	-0.068222
	O8516	O	0.932150	-0.459286	0.008264
	O8517	O	0.923328	-0.374835	-0.015634
	O8518	O	0.922287	-0.124864	0.004278
	O8519	O	0.975805	-0.458614	0.042907
	O8520	O	0.912466	-0.458261	0.008762
	O8521	O	0.872702	-0.458850	0.062792
	O8522	O	0.912470	-0.290605	0.008901
	O8523	O	0.913189	-0.209088	-0.019385
	O8524	O	0.869622	-0.209295	-0.054291
	O8525	O	0.932082	-0.291026	0.008396
	O8526	O	0.933882	-0.209395	-0.018278
	O8527	O	0.983223	-0.208451	-0.013129
	O8528	O	0.872596	-0.290813	0.062681
	O8529	O	0.913237	-0.041128	-0.019527
	O8530	O	0.869606	-0.041125	-0.054318
	O8531	O	0.983200	-0.040325	-0.013082
	O8532	O	0.933822	-0.041252	-0.018400
	O8533	O	0.975755	-0.290492	0.043061
	O8534	O	0.862945	-0.124906	0.069377
	O8535	O	0.993774	-0.374749	-0.014087
	C8536	C	0.958323	-0.285352	0.028933
	C8537	C	0.962849	-0.374814	0.032307
	C8538	C	0.958336	-0.464354	0.028953
	C8539	C	0.949573	-0.464352	0.022344
	C8540	C	0.945062	-0.374885	0.018936
	C8541	C	0.949554	-0.285212	0.022320
	C8542	C	0.935750	-0.375085	0.011299
	C8543	C	0.972123	-0.374537	0.040015
	C8544	C	0.909034	-0.374559	0.013183
	C8545	C	0.900391	-0.374562	0.024568
	C8546	C	0.896398	-0.285642	0.030171
	C8547	C	0.888490	-0.285776	0.040944
	C8548	C	0.884373	-0.374709	0.046301
	C8549	C	0.888341	-0.463539	0.040660
	C8550	C	0.896253	-0.463348	0.029899
	C8551	C	0.875968	-0.374724	0.058175
	C8552	C	0.909557	-0.125107	-0.022396
	C8553	C	0.900278	-0.125124	-0.030123
	C8554	C	0.895777	-0.035554	-0.033525
	C8555	C	0.887039	-0.035374	-0.040186
	C8556	C	0.882555	-0.125012	-0.043613
	C8557	C	0.887049	-0.214624	-0.040186
	C8558	C	0.895792	-0.214827	-0.033493
	C8559	C	0.873248	-0.125282	-0.051318
	C8560	C	0.938054	-0.125153	-0.018218
	C8561	C	0.948688	-0.124705	-0.017526
	C8562	C	0.953673	-0.214457	-0.016644
	C8563	C	0.963403	-0.214235	-0.014786
	C8564	C	0.968393	-0.124437	-0.013845
	C8565	C	0.963396	-0.034564	-0.014747
	C8566	C	0.953666	-0.034808	-0.016569
	C8567	C	0.979019	-0.124523	-0.013248
	H8568	H	0.967144	-0.284176	-0.014088
	H8569	H	0.949955	-0.284586	-0.017439
	H8570	H	0.961716	-0.215616	0.031528
	H8571	H	0.946160	-0.215524	0.019795
	H8572	H	0.924690	-0.375020	-0.026264
	H8573	H	0.922016	-0.124211	0.015030
	H8574	H	0.862632	-0.125495	0.058630
	H8575	H	0.992303	-0.374769	-0.003440
	H8576	H	0.899170	-0.284402	-0.030866
	H8577	H	0.883688	-0.284432	-0.042773
	H8578	H	0.885491	-0.216718	0.045284
	H8579	H	0.899508	-0.216587	0.026169
	H8580	H	0.883681	0.034407	-0.042779
	H8581	H	0.899153	0.033906	-0.030923
	H8582	H	0.899256	-0.532429	0.025592
	H8583	H	0.885291	-0.532770	0.044753
	H8584	H	0.946218	-0.533907	0.019773
	H8585	H	0.961720	-0.533989	0.031513
	H8586	H	0.949893	0.034917	-0.017301
	H8587	H	0.967135	0.035390	-0.013977
	Al8588	Al	0.922654	0.000441	-0.005842
	Al8589	Al	0.922651	0.249449	-0.005738
	Al8590	Al	0.860159	0.250535	-0.068254
	Al8591	Al	0.860157	-0.000478	-0.068356
	O8592	O	0.932160	0.040518	0.008197
	O8593	O	0.923323	0.125080	-0.015691
	O8594	O	0.922322	0.375206	0.004302
	O8595	O	0.975710	0.040766	0.043136
	O8596	O	0.912428	0.041205	0.008688
	O8597	O	0.872651	0.040953	0.062679
	O8598	O	0.912449	0.209007	0.008759
	O8599	O	0.913285	0.290972	-0.019559
	O8600	O	0.869617	0.291160	-0.054238
	O8601	O	0.932113	0.208601	0.008310
	O8602	O	0.933905	0.290648	-0.018168
	O8603	O	0.983264	0.291044	-0.013210
	O8604	O	0.872693	0.208977	0.062779
	O8605	O	0.913287	0.459113	-0.019576
	O8606	O	0.869643	0.459182	-0.054250
	O8607	O	0.983235	0.459120	-0.013222
	O8608	O	0.933866	0.458948	-0.018316
	O8609	O	0.975732	0.208720	0.043007
	O8610	O	0.863097	0.374932	0.069446
	O8611	O	0.993757	0.125302	-0.014050
	C8612	C	0.958324	0.213929	0.028967
	C8613	C	0.962760	0.124493	0.032496
	C8614	C	0.958241	0.034889	0.029217
	C8615	C	0.949487	0.034873	0.022574
	C8616	C	0.945033	0.124446	0.019073
	C8617	C	0.949571	0.213964	0.022326
	C8618	C	0.935740	0.124555	0.011326
	C8619	C	0.972056	0.124660	0.040144
	C8620	C	0.909018	0.125154	0.013103
	C8621	C	0.900386	0.125056	0.024539
	C8622	C	0.896335	0.213970	0.030060
	C8623	C	0.888448	0.214053	0.040825
	C8624	C	0.884398	0.125102	0.046324
	C8625	C	0.888398	0.036159	0.040695
	C8626	C	0.896299	0.036148	0.029936
	C8627	C	0.875964	0.124961	0.058177
	C8628	C	0.909636	0.375069	-0.022543
	C8629	C	0.900347	0.374905	-0.030122
	C8630	C	0.895847	0.464470	-0.033523
	C8631	C	0.887073	0.464185	-0.040134
	C8632	C	0.882566	0.374591	-0.043513
	C8633	C	0.887103	0.285133	-0.040198
	C8634	C	0.895881	0.285356	-0.033594
	C8635	C	0.873266	0.374942	-0.051194
	C8636	C	0.938084	0.375012	-0.018103
	C8637	C	0.948703	0.375242	-0.017451
	C8638	C	0.953711	0.285414	-0.016626
	C8639	C	0.963426	0.285365	-0.014866
	C8640	C	0.968431	0.375134	-0.013893
	C8641	C	0.963426	0.465093	-0.014661
	C8642	C	0.953702	0.465134	-0.016437
	C8643	C	0.979070	0.375023	-0.013320
	H8644	H	0.967212	0.215334	-0.014245
	H8645	H	0.949957	0.215614	-0.017414
	H8646	H	0.961724	0.283493	0.031493
	H8647	H	0.946255	0.283631	0.019647
	H8648	H	0.924626	0.125776	-0.026366
	H8649	H	0.922137	0.375256	0.015122
	H8650	H	0.862815	0.374684	0.058684
	H8651	H	0.992106	0.125563	-0.003461
	H8652	H	0.899297	0.215837	-0.031146
	H8653	H	0.883791	0.215307	-0.042876
	H8654	H	0.885436	0.283198	0.045061
	H8655	H	0.899401	0.283204	0.025885
	H8656	H	0.883702	0.533948	-0.042768
	H8657	H	0.899230	0.534024	-0.031024
	H8658	H	0.899311	-0.032825	0.025640
	H8659	H	0.885323	-0.032762	0.044828
	H8660	H	0.946088	-0.034603	0.020110
	H8661	H	0.961576	-0.034762	0.031892
	H8662	H	0.949934	0.534869	-0.017043
	H8663	H	0.967199	0.534700	-0.013894
	Al8664	Al	0.925870	-0.500451	0.141692
	Al8665	Al	0.925790	-0.250447	0.141705
	Al8666	Al	0.863395	-0.249847	0.079103
	Al8667	Al	0.863423	-0.499872	0.079140
	O8668	O	0.936046	-0.458587	0.153916
	O8669	O	0.925488	-0.375338	0.132032
	O8670	O	0.926203	-0.125187	0.151453
	O8671	O	0.978131	-0.458916	0.192082
	O8672	O	0.916760	-0.458877	0.158264
	O8673	O	0.879966	-0.459056	0.217810
	O8674	O	0.916714	-0.291003	0.158295
	O8675	O	0.915611	-0.209106	0.129628
	O8676	O	0.873633	-0.209204	0.091166
	O8677	O	0.936070	-0.290517	0.153793
	O8678	O	0.935024	-0.209226	0.125277
	O8679	O	0.974896	-0.209269	0.071420
	O8680	O	0.879915	-0.291044	0.217765
	O8681	O	0.915642	-0.040949	0.129569
	O8682	O	0.873551	-0.041111	0.091218
	O8683	O	0.974874	-0.041370	0.071367
	O8684	O	0.935102	-0.041057	0.125302
	O8685	O	0.978204	-0.290733	0.191993
	O8686	O	0.870477	-0.124989	0.224900
	O8687	O	0.984748	-0.375116	0.066807
	C8688	C	0.961373	-0.285437	0.176634
	C8689	C	0.965623	-0.374628	0.180545
	C8690	C	0.961315	-0.463700	0.176695
	C8691	C	0.952910	-0.463577	0.169084
	C8692	C	0.948640	-0.374328	0.165249
	C8693	C	0.952972	-0.285184	0.169010
	C8694	C	0.939593	-0.374585	0.156984
	C8695	C	0.974604	-0.374613	0.188920
	C8696	C	0.913621	-0.374950	0.163204
	C8697	C	0.905735	-0.375001	0.176014
	C8698	C	0.901982	-0.286117	0.182099
	C8699	C	0.894683	-0.285933	0.193965
	C8700	C	0.890937	-0.374812	0.200028
	C8701	C	0.894664	-0.463638	0.193930
	C8702	C	0.901959	-0.463807	0.182052
	C8703	C	0.883069	-0.375116	0.212848
	C8704	C	0.912111	-0.125090	0.126389
	C8705	C	0.903130	-0.124812	0.117989
	C8706	C	0.898857	-0.035887	0.114089
	C8707	C	0.890474	-0.035810	0.106419
	C8708	C	0.886192	-0.124944	0.102539
	C8709	C	0.890417	-0.214083	0.106554
	C8710	C	0.898809	-0.213947	0.114201
	C8711	C	0.877153	-0.125015	0.094312
	C8712	C	0.938407	-0.125328	0.120760
	C8713	C	0.946814	-0.125354	0.108870
	C8714	C	0.950872	-0.214107	0.103366
	C8715	C	0.958781	-0.213846	0.092611
	C8716	C	0.962814	-0.125071	0.087120
	C8717	C	0.958732	-0.036135	0.092578
	C8718	C	0.950826	-0.036386	0.103341
	C8719	C	0.971468	-0.125171	0.075740
	H8720	H	0.961894	-0.282715	0.088539
	H8721	H	0.947881	-0.283214	0.107613
	H8722	H	0.964636	-0.216440	0.179635
	H8723	H	0.949743	-0.216233	0.165934
	H8724	H	0.925366	-0.375244	0.121341
	H8725	H	0.926638	-0.125128	0.162075
	H8726	H	0.870085	-0.124746	0.214218
	H8727	H	0.984421	-0.375233	0.077617
	H8728	H	0.902057	-0.282624	0.117290
	H8729	H	0.887110	-0.283043	0.103658
	H8730	H	0.891871	-0.217018	0.198636
	H8731	H	0.904788	-0.217096	0.177452
	H8732	H	0.887205	0.033240	0.103470
	H8733	H	0.902104	0.033015	0.117136
	H8734	H	0.904746	-0.533064	0.177398
	H8735	H	0.891860	-0.532472	0.198516
	H8736	H	0.949627	-0.532503	0.166151
	H8737	H	0.964533	-0.532866	0.179747
	H8738	H	0.947766	0.032241	0.107554
	H8739	H	0.961758	0.032768	0.088419
	Al8740	Al	0.925836	-0.000357	0.141652
	Al8741	Al	0.925890	0.249593	0.141739
	Al8742	Al	0.863435	0.250235	0.079124
	Al8743	Al	0.863350	-0.000035	0.079099
	O8744	O	0.936047	0.040573	0.153881
	O8745	O	0.925506	0.124869	0.132007
	O8746	O	0.926332	0.374900	0.151418
	O8747	O	0.978202	0.040375	0.192009
	O8748	O	0.916703	0.041301	0.158230
	O8749	O	0.879971	0.041135	0.217811
	O8750	O	0.916765	0.209412	0.158318
	O8751	O	0.915700	0.291022	0.129621
	O8752	O	0.873644	0.290753	0.091313
	O8753	O	0.936098	0.208866	0.153872
	O8754	O	0.935139	0.291031	0.125306
	O8755	O	0.974897	0.291011	0.071214
	O8756	O	0.879909	0.209065	0.217812
	O8757	O	0.915723	0.459238	0.129553
	O8758	O	0.873636	0.458776	0.091218
	O8759	O	0.974886	0.458895	0.071237
	O8760	O	0.935217	0.459020	0.125349
	O8761	O	0.978254	0.208409	0.191890
	O8762	O	0.870461	0.375066	0.224924
	O8763	O	0.984721	0.125220	0.066831
	C8764	C	0.961389	0.213838	0.176613
	C8765	C	0.965639	0.124601	0.180556
	C8766	C	0.961322	0.035426	0.176804
	C8767	C	0.952895	0.035380	0.169220
	C8768	C	0.948632	0.124623	0.165325
	C8769	C	0.952962	0.213984	0.169028
	C8770	C	0.939599	0.124504	0.157011
	C8771	C	0.974654	0.124628	0.188882
	C8772	C	0.913598	0.125217	0.163180
	C8773	C	0.905727	0.125288	0.175990
	C8774	C	0.901980	0.214158	0.182111
	C8775	C	0.894682	0.214194	0.193989
	C8776	C	0.890934	0.125132	0.200040
	C8777	C	0.894684	0.036178	0.193944
	C8778	C	0.901970	0.036087	0.182058
	C8779	C	0.883049	0.125205	0.212877
	C8780	C	0.912181	0.375074	0.126383
	C8781	C	0.903177	0.375365	0.118058
	C8782	C	0.898923	0.464445	0.114068
	C8783	C	0.890511	0.464255	0.106454
	C8784	C	0.886191	0.374920	0.102721
	C8785	C	0.890462	0.285823	0.106662
	C8786	C	0.898876	0.286037	0.114261
	C8787	C	0.877189	0.374987	0.094407
	C8788	C	0.938487	0.375020	0.120813
	C8789	C	0.946893	0.374768	0.108903
	C8790	C	0.950863	0.285989	0.103225
	C8791	C	0.958753	0.286003	0.092431
	C8792	C	0.962893	0.374957	0.087088
	C8793	C	0.958840	0.463665	0.092630
	C8794	C	0.950955	0.463734	0.103421
	C8795	C	0.971471	0.375050	0.075611
	H8796	H	0.961735	0.217023	0.088095
	H8797	H	0.947783	0.217191	0.107357
	H8798	H	0.964683	0.283018	0.179550
	H8799	H	0.949723	0.283067	0.165982
	H8800	H	0.925160	0.124664	0.121298
	H8801	H	0.926865	0.375084	0.162109
	H8802	H	0.869958	0.375191	0.214286
	H8803	H	0.984411	0.125559	0.077616
	H8804	H	0.902138	0.217154	0.117296
	H8805	H	0.887192	0.216674	0.103733
	H8806	H	0.891889	0.283283	0.198608
	H8807	H	0.904792	0.283333	0.177480
	H8808	H	0.887267	0.532845	0.103398
	H8809	H	0.902184	0.533574	0.116934
	H8810	H	0.904761	-0.032840	0.177445
	H8811	H	0.891849	-0.032809	0.198603
	H8812	H	0.949610	-0.033718	0.166312
	H8813	H	0.964543	-0.033685	0.179872
	H8814	H	0.947932	0.532717	0.107654
	H8815	H	0.961911	0.532483	0.088475
	Al8816	Al	0.933478	-0.499828	0.297140
	Al8817	Al	0.933490	-0.249883	0.296994
	Al8818	Al	0.870923	-0.249978	0.234555
	Al8819	Al	0.870954	-0.499874	0.234580
	O8820	O	0.943752	-0.458752	0.309065
	O8821	O	0.933004	-0.374899	0.287408
	O8822	O	0.933941	-0.125099	0.306666
	O8823	O	0.985665	-0.459126	0.347611
	O8824	O	0.924479	-0.458940	0.313863
	O8825	O	0.888000	-0.458813	0.373949
	O8826	O	0.924466	-0.290851	0.313837
	O8827	O	0.923186	-0.209062	0.285080
	O8828	O	0.881249	-0.209090	0.246408
	O8829	O	0.943813	-0.290510	0.308893
	O8830	O	0.942489	-0.208743	0.280215
	O8831	O	0.979208	-0.208854	0.220720
	O8832	O	0.887962	-0.290955	0.373907
	O8833	O	0.923133	-0.040825	0.285216
	O8834	O	0.881206	-0.040951	0.246559
	O8835	O	0.979289	-0.041046	0.220737
	O8836	O	0.942502	-0.040686	0.280264
	O8837	O	0.985689	-0.290945	0.347626
	O8838	O	0.878456	-0.124903	0.381155
	O8839	O	0.988773	-0.374902	0.213889
	C8840	C	0.968913	-0.285531	0.332098
	C8841	C	0.973141	-0.374889	0.336160
	C8842	C	0.968884	-0.464332	0.332189
	C8843	C	0.960543	-0.464339	0.324445
	C8844	C	0.956287	-0.374925	0.320505
	C8845	C	0.960568	-0.285492	0.324337
	C8846	C	0.947313	-0.374678	0.312160
	C8847	C	0.982146	-0.374838	0.344463
	C8848	C	0.921399	-0.374635	0.318837
	C8849	C	0.913594	-0.374662	0.331831
	C8850	C	0.909893	-0.285715	0.337999
	C8851	C	0.902664	-0.285863	0.350021
	C8852	C	0.898963	-0.374882	0.356108
	C8853	C	0.902629	-0.463979	0.349900
	C8854	C	0.909851	-0.463630	0.337882
	C8855	C	0.891110	-0.375087	0.369007
	C8856	C	0.919622	-0.125088	0.282009
	C8857	C	0.910624	-0.124952	0.273674
	C8858	C	0.906381	-0.035792	0.269717
	C8859	C	0.898029	-0.035858	0.261955
	C8860	C	0.893734	-0.124957	0.258081
	C8861	C	0.897984	-0.214109	0.262049
	C8862	C	0.906335	-0.214003	0.269800
	C8863	C	0.884753	-0.125053	0.249687
	C8864	C	0.945604	-0.124485	0.275331
	C8865	C	0.953474	-0.124628	0.262476
	C8866	C	0.957214	-0.213490	0.256411
	C8867	C	0.964493	-0.213453	0.244529
	C8868	C	0.968222	-0.124393	0.238444
	C8869	C	0.964515	-0.035459	0.244580
	C8870	C	0.957240	-0.035635	0.256467
	C8871	C	0.976136	-0.124939	0.225646
	H8872	H	0.967340	-0.282172	0.239911
	H8873	H	0.954418	-0.282439	0.261072
	H8874	H	0.972185	-0.216383	0.335061
	H8875	H	0.957335	-0.216540	0.321199
	H8876	H	0.932446	-0.374763	0.276805
	H8877	H	0.934361	-0.124298	0.317388
	H8878	H	0.877846	-0.125177	0.370507
	H8879	H	0.989249	-0.374766	0.224511
	H8880	H	0.909545	-0.283079	0.272901
	H8881	H	0.894736	-0.283069	0.259067
	H8882	H	0.899886	-0.216626	0.354702
	H8883	H	0.912690	-0.216543	0.333356
	H8884	H	0.894793	0.033025	0.258828
	H8885	H	0.909645	0.033002	0.272726
	H8886	H	0.912605	-0.532746	0.333158
	H8887	H	0.899808	-0.533426	0.354484
	H8888	H	0.957333	-0.533271	0.321397
	H8889	H	0.972143	-0.533246	0.335259
	H8890	H	0.954443	0.033361	0.261143
	H8891	H	0.967346	0.033538	0.239997
	Al8892	Al	0.933458	0.000079	0.297054
	Al8893	Al	0.933442	0.249678	0.297124
	Al8894	Al	0.870935	0.250185	0.234629
	Al8895	Al	0.870924	0.000199	0.234567
	O8896	O	0.943732	0.041103	0.309003
	O8897	O	0.932945	0.124817	0.287382
	O8898	O	0.933976	0.374689	0.306779
	O8899	O	0.985658	0.040822	0.347642
	O8900	O	0.924510	0.040800	0.313908
	O8901	O	0.888019	0.040550	0.373997
	O8902	O	0.924426	0.208701	0.313843
	O8903	O	0.923148	0.291334	0.285254
	O8904	O	0.881228	0.291134	0.246521
	O8905	O	0.943780	0.208934	0.308969
	O8906	O	0.942443	0.291195	0.280338
	O8907	O	0.979192	0.290655	0.220635
	O8908	O	0.888045	0.208354	0.373996
	O8909	O	0.923142	0.459266	0.285267
	O8910	O	0.881257	0.459028	0.246473
	O8911	O	0.979221	0.458744	0.220723
	O8912	O	0.942519	0.459040	0.280421
	O8913	O	0.985696	0.208731	0.347555
	O8914	O	0.878560	0.374957	0.381057
	O8915	O	0.988790	0.125082	0.213858
	C8916	C	0.968906	0.213793	0.332074
	C8917	C	0.973151	0.124809	0.336058
	C8918	C	0.968854	0.035734	0.332224
	C8919	C	0.960509	0.035638	0.324508
	C8920	C	0.956286	0.124647	0.320428
	C8921	C	0.960557	0.213786	0.324325
	C8922	C	0.947311	0.124931	0.312098
	C8923	C	0.982135	0.124711	0.344414
	C8924	C	0.921358	0.124754	0.318845
	C8925	C	0.913594	0.124899	0.331806
	C8926	C	0.909862	0.213752	0.337937
	C8927	C	0.902636	0.213538	0.349931
	C8928	C	0.898928	0.124479	0.356080
	C8929	C	0.902657	0.035818	0.349918
	C8930	C	0.909885	0.036000	0.337940
	C8931	C	0.891136	0.124620	0.369030
	C8932	C	0.919614	0.375440	0.282050
	C8933	C	0.910651	0.375373	0.273672
	C8934	C	0.906372	0.464275	0.269789
	C8935	C	0.898031	0.464051	0.262026
	C8936	C	0.893775	0.375168	0.258030
	C8937	C	0.898032	0.286192	0.261987
	C8938	C	0.906379	0.286337	0.269729
	C8939	C	0.884790	0.375069	0.249687
	C8940	C	0.945584	0.374952	0.275422
	C8941	C	0.953435	0.374805	0.262539
	C8942	C	0.957195	0.285936	0.256505
	C8943	C	0.964485	0.285878	0.244581
	C8944	C	0.968181	0.374728	0.238406
	C8945	C	0.964493	0.463685	0.244559
	C8946	C	0.957205	0.463738	0.256485
	C8947	C	0.976079	0.374667	0.225581
	H8948	H	0.967331	0.216758	0.240023
	H8949	H	0.954435	0.216913	0.261189
	H8950	H	0.972185	0.282565	0.335120
	H8951	H	0.957342	0.282504	0.321152
	H8952	H	0.932496	0.125427	0.276727
	H8953	H	0.934523	0.375441	0.317435
	H8954	H	0.877975	0.374502	0.370464
	H8955	H	0.989228	0.124939	0.224530
	H8956	H	0.909629	0.217566	0.272777
	H8957	H	0.894770	0.217456	0.259003
	H8958	H	0.899836	0.282300	0.354609
	H8959	H	0.912644	0.282513	0.333260
	H8960	H	0.894769	0.533106	0.259020
	H8961	H	0.909609	0.532954	0.272834
	H8962	H	0.912665	-0.032978	0.333222
	H8963	H	0.899860	-0.033112	0.354600
	H8964	H	0.957274	-0.033349	0.321537
	H8965	H	0.972052	-0.033187	0.335396
	H8966	H	0.954426	0.532871	0.261132
	H8967	H	0.967313	0.532812	0.239995
	Al8968	Al	0.941522	-0.499912	0.453177
	Al8969	Al	0.941540	-0.250034	0.453200
	Al8970	Al	0.879007	-0.250115	0.390760
	Al8971	Al	0.879024	-0.499936	0.390685
	O8972	O	0.951827	-0.459261	0.465091
	O8973	O	0.941044	-0.374788	0.443515
	O8974	O	0.941969	-0.124625	0.462781
	O8975	O	0.993742	-0.459260	0.503766
	O8976	O	0.932525	-0.459291	0.469951
	O8977	O	0.895741	-0.458939	0.529489
	O8978	O	0.932590	-0.291129	0.470032
	O8979	O	0.931162	-0.208861	0.441419
	O8980	O	0.889320	-0.208874	0.402626
	O8981	O	0.951832	-0.291175	0.465063
	O8982	O	0.950473	-0.209171	0.436311
	O8983	O	0.987014	-0.208556	0.376272
	O8984	O	0.895714	-0.290935	0.529554
	O8985	O	0.931251	-0.040689	0.441220
	O8986	O	0.889288	-0.040704	0.402656
	O8987	O	0.987021	-0.040530	0.376314
	O8988	O	0.950476	-0.041106	0.436320
	O8989	O	0.993703	-0.291074	0.503890
	O8990	O	0.886221	-0.125010	0.536416
	O8991	O	0.996505	-0.374875	0.369123
	C8992	C	0.976944	-0.285894	0.488305
	C8993	C	0.981204	-0.375000	0.492260
	C8994	C	0.976958	-0.464141	0.488349
	C8995	C	0.968593	-0.463945	0.480612
	C8996	C	0.964337	-0.374983	0.476639
	C8997	C	0.968579	-0.285885	0.480560
	C8998	C	0.955342	-0.374954	0.468289
	C8999	C	0.990204	-0.375096	0.500618
	C9000	C	0.929460	-0.375330	0.474952
	C9001	C	0.921587	-0.374913	0.487802
	C9002	C	0.917860	-0.285814	0.493941
	C9003	C	0.910540	-0.285737	0.505775
	C9004	C	0.906733	-0.374778	0.511767
	C9005	C	0.910478	-0.463902	0.505663
	C9006	C	0.917796	-0.464035	0.493816
	C9007	C	0.898849	-0.374871	0.524625
	C9008	C	0.927679	-0.124733	0.438183
	C9009	C	0.918692	-0.124691	0.429809
	C9010	C	0.914493	-0.035541	0.425726
	C9011	C	0.906142	-0.035635	0.417971
	C9012	C	0.901809	-0.124752	0.414191
	C9013	C	0.906048	-0.213903	0.418148
	C9014	C	0.914396	-0.213843	0.425925
	C9015	C	0.892846	-0.124830	0.405805
	C9016	C	0.953575	-0.124979	0.431353
	C9017	C	0.961420	-0.124900	0.418487
	C9018	C	0.965141	-0.214184	0.412326
	C9019	C	0.972382	-0.213937	0.400370
	C9020	C	0.976109	-0.124712	0.394231
	C9021	C	0.972376	-0.035463	0.400400
	C9022	C	0.965143	-0.035668	0.412371
	C9023	C	0.983938	-0.124608	0.381292
	H9024	H	0.975174	-0.282983	0.395663
	H9025	H	0.962348	-0.283352	0.416951
	H9026	H	0.980189	-0.216919	0.491246
	H9027	H	0.965340	-0.217027	0.477526
	H9028	H	0.940489	-0.375220	0.432858
	H9029	H	0.942249	-0.125017	0.473528
	H9030	H	0.885785	-0.125647	0.525760
	H9031	H	0.997065	-0.375086	0.379728
	H9032	H	0.917602	-0.282824	0.429001
	H9033	H	0.902794	-0.282845	0.415136
	H9034	H	0.907743	-0.216489	0.510492
	H9035	H	0.920730	-0.216928	0.489373
	H9036	H	0.902952	0.033193	0.414788
	H9037	H	0.917793	0.033497	0.428679
	H9038	H	0.920601	-0.533141	0.489199
	H9039	H	0.907667	-0.532891	0.510297
	H9040	H	0.965333	-0.532719	0.477632
	H9041	H	0.980217	-0.532884	0.491348
	H9042	H	0.962347	0.033554	0.417053
	H9043	H	0.975199	0.033635	0.395757
	Al9044	Al	0.941511	0.000240	0.453120
	Al9045	Al	0.941547	0.250215	0.453141
	Al9046	Al	0.879068	0.249941	0.390782
	Al9047	Al	0.878994	0.000070	0.390797
	O9048	O	0.951847	0.040901	0.464990
	O9049	O	0.941036	0.125394	0.443498
	O9050	O	0.942050	0.375185	0.462813
	O9051	O	0.993704	0.041307	0.503814
	O9052	O	0.932500	0.040983	0.469927
	O9053	O	0.895722	0.041228	0.529394
	O9054	O	0.932582	0.209011	0.469993
	O9055	O	0.931196	0.290756	0.441349
	O9056	O	0.889349	0.291143	0.402634
	O9057	O	0.951829	0.208781	0.465080
	O9058	O	0.950536	0.290825	0.436330
	O9059	O	0.986986	0.290517	0.376285
	O9060	O	0.895749	0.209069	0.529564
	O9061	O	0.931264	0.458954	0.441280
	O9062	O	0.889344	0.459376	0.402610
	O9063	O	0.987023	0.458509	0.376251
	O9064	O	0.950480	0.458734	0.436375
	O9065	O	0.993677	0.209398	0.503784
	O9066	O	0.886228	0.374924	0.536399
	O9067	O	0.996438	0.124985	0.369132
	C9068	C	0.976926	0.214079	0.488312
	C9069	C	0.981182	0.125111	0.492281
	C9070	C	0.976956	0.036078	0.488281
	C9071	C	0.968616	0.035898	0.480527
	C9072	C	0.964352	0.124854	0.476583
	C9073	C	0.968578	0.213959	0.480555
	C9074	C	0.955365	0.124868	0.468233
	C9075	C	0.990178	0.125171	0.500598
	C9076	C	0.929447	0.124838	0.474928
	C9077	C	0.921622	0.125281	0.487808
	C9078	C	0.917868	0.214051	0.493827
	C9079	C	0.910571	0.213825	0.505731
	C9080	C	0.906819	0.125091	0.511838
	C9081	C	0.910563	0.036405	0.505795
	C9082	C	0.917863	0.036480	0.493904
	C9083	C	0.898883	0.125472	0.524584
	C9084	C	0.927679	0.375121	0.438192
	C9085	C	0.918712	0.375186	0.429795
	C9086	C	0.914484	0.464522	0.425796
	C9087	C	0.906145	0.464410	0.418042
	C9088	C	0.901847	0.375189	0.414200
	C9089	C	0.906076	0.285689	0.418214
	C9090	C	0.914420	0.285824	0.425961
	C9091	C	0.892874	0.375250	0.405773
	C9092	C	0.953606	0.374850	0.431390
	C9093	C	0.961437	0.375183	0.418459
	C9094	C	0.965184	0.286160	0.412403
	C9095	C	0.972419	0.286051	0.400407
	C9096	C	0.976096	0.374810	0.394214
	C9097	C	0.972405	0.463689	0.400370
	C9098	C	0.965158	0.463825	0.412365
	C9099	C	0.983910	0.374681	0.381239
	H9100	H	0.975217	0.217094	0.395833
	H9101	H	0.962401	0.217468	0.417074
	H9102	H	0.980170	0.283039	0.491334
	H9103	H	0.965318	0.282735	0.477513
	H9104	H	0.940532	0.125061	0.432879
	H9105	H	0.942481	0.374230	0.473435
	H9106	H	0.885699	0.374181	0.525696
	H9107	H	0.996744	0.125315	0.379838
	H9108	H	0.917660	0.216690	0.429140
	H9109	H	0.902793	0.216749	0.415224
	H9110	H	0.907751	0.282891	0.510308
	H9111	H	0.920628	0.283194	0.489131
	H9112	H	0.902936	0.533302	0.414887
	H9113	H	0.917743	0.533643	0.428791
	H9114	H	0.920652	-0.032405	0.489236
	H9115	H	0.907743	-0.032767	0.510404
	H9116	H	0.965417	-0.032816	0.477420
	H9117	H	0.980208	-0.032796	0.491313
	H9118	H	0.962385	0.532697	0.417017
	H9119	H	0.975198	0.532595	0.395720
	Al9120	Al	0.949113	-0.499947	0.608641
	Al9121	Al	0.949059	-0.249791	0.608654
	Al9122	Al	0.886624	-0.249931	0.546134
	Al9123	Al	0.886649	-0.500020	0.546069
	O9124	O	0.959314	-0.458967	0.620759
	O9125	O	0.948702	-0.375020	0.598899
	O9126	O	0.949441	-0.124896	0.618359
	O9127	O	1.001360	-0.458821	0.658978
	O9128	O	0.939811	-0.459288	0.624924
	O9129	O	0.900025	-0.458596	0.678948
	O9130	O	0.939866	-0.291559	0.625027
	O9131	O	0.938844	-0.208962	0.596637
	O9132	O	0.896783	-0.208411	0.558306
	O9133	O	0.959301	-0.290765	0.620741
	O9134	O	0.958250	-0.209109	0.592033
	O9135	O	0.995093	-0.208620	0.532636
	O9136	O	0.900037	-0.290870	0.678943
	O9137	O	0.938989	-0.040892	0.596327
	O9138	O	0.896841	-0.040480	0.558238
	O9139	O	0.995011	-0.040662	0.532508
	O9140	O	0.958213	-0.041221	0.592063
	O9141	O	1.001426	-0.290822	0.658932
	O9142	O	0.890164	-0.125164	0.683429
	O9143	O	1.004535	-0.374818	0.525360
	C9144	C	0.984548	-0.285584	0.643579
	C9145	C	0.988802	-0.374533	0.647579
	C9146	C	0.984511	-0.463686	0.643778
	C9147	C	0.976112	-0.463900	0.636190
	C9148	C	0.971857	-0.374831	0.632187
	C9149	C	0.976158	-0.285760	0.635968
	C9150	C	0.962864	-0.374788	0.623910
	C9151	C	0.997852	-0.374746	0.655795
	C9152	C	0.936510	-0.375379	0.629452
	C9153	C	0.928049	-0.375110	0.641279
	C9154	C	0.924012	-0.286044	0.646796
	C9155	C	0.916122	-0.285978	0.657571
	C9156	C	0.912041	-0.374936	0.663053
	C9157	C	0.916144	-0.464043	0.657668
	C9158	C	0.924038	-0.464120	0.646889
	C9159	C	0.903452	-0.375081	0.674531
	C9160	C	0.935360	-0.124843	0.593363
	C9161	C	0.926355	-0.124778	0.585061
	C9162	C	0.922113	-0.035709	0.581087
	C9163	C	0.913728	-0.035668	0.573467
	C9164	C	0.909372	-0.124701	0.569750
	C9165	C	0.913624	-0.213982	0.573648
	C9166	C	0.922027	-0.213965	0.581271
	C9167	C	0.900370	-0.124595	0.561404
	C9168	C	0.961352	-0.125147	0.587109
	C9169	C	0.969238	-0.124819	0.574342
	C9170	C	0.973003	-0.213833	0.568261
	C9171	C	0.980313	-0.213632	0.556411
	C9172	C	0.984061	-0.124518	0.550327
	C9173	C	0.980319	-0.035474	0.556476
	C9174	C	0.973015	-0.035624	0.568330
	C9175	C	0.991934	-0.124605	0.537526
	H9176	H	0.983142	-0.282777	0.551815
	H9177	H	0.970175	-0.282934	0.572841
	H9178	H	0.987818	-0.216729	0.646484
	H9179	H	0.972965	-0.216897	0.632775
	H9180	H	0.948219	-0.375327	0.588195
	H9181	H	0.949677	-0.124810	0.629105
	H9182	H	0.890353	-0.125563	0.672622
	H9183	H	1.004976	-0.375058	0.536056
	H9184	H	0.925257	-0.282826	0.584360
	H9185	H	0.910351	-0.282600	0.570632
	H9186	H	0.913080	-0.216573	0.661731
	H9187	H	0.927070	-0.217000	0.642561
	H9188	H	0.910539	0.033607	0.570330
	H9189	H	0.925395	0.033388	0.584035
	H9190	H	0.927100	-0.533351	0.642764
	H9191	H	0.913129	-0.533019	0.661962
	H9192	H	0.972859	-0.532951	0.633213
	H9193	H	0.987757	-0.532560	0.646885
	H9194	H	0.970190	0.033189	0.572989
	H9195	H	0.983156	0.033605	0.551852
	Al9196	Al	0.949099	-0.000085	0.608634
	Al9197	Al	0.949140	0.250199	0.608658
	Al9198	Al	0.886629	0.250249	0.546158
	Al9199	Al	0.886642	0.000179	0.546032
	O9200	O	0.959339	0.040672	0.620725
	O9201	O	0.948737	0.125138	0.598942
	O9202	O	0.949545	0.375055	0.618323
	O9203	O	1.001377	0.040628	0.659001
	O9204	O	0.939830	0.041031	0.625006
	O9205	O	0.900032	0.041462	0.678798
	O9206	O	0.939873	0.208950	0.625008
	O9207	O	0.938930	0.290927	0.596513
	O9208	O	0.896816	0.290888	0.558323
	O9209	O	0.959306	0.208912	0.620795
	O9210	O	0.958277	0.291107	0.592080
	O9211	O	0.995046	0.291271	0.532521
	O9212	O	0.900003	0.209292	0.678830
	O9213	O	0.938942	0.459119	0.596480
	O9214	O	0.896848	0.459254	0.558266
	O9215	O	0.995067	0.459132	0.532509
	O9216	O	0.958210	0.459101	0.591976
	O9217	O	1.001431	0.208668	0.658904
	O9218	O	0.890116	0.375187	0.683476
	O9219	O	1.004513	0.125073	0.525327
	C9220	C	0.984576	0.213972	0.643642
	C9221	C	0.988836	0.124844	0.647531
	C9222	C	0.984521	0.035794	0.643733
	C9223	C	0.976139	0.035832	0.636085
	C9224	C	0.971900	0.125002	0.632123
	C9225	C	0.976189	0.214141	0.635979
	C9226	C	0.962853	0.124830	0.623887
	C9227	C	0.997865	0.124878	0.655821
	C9228	C	0.936536	0.125088	0.629549
	C9229	C	0.928122	0.125174	0.641386
	C9230	C	0.924065	0.214234	0.646840
	C9231	C	0.916128	0.214362	0.657576
	C9232	C	0.912068	0.125421	0.663069
	C9233	C	0.916140	0.036379	0.657628
	C9234	C	0.924077	0.036275	0.646894
	C9235	C	0.903441	0.125385	0.674471
	C9236	C	0.935384	0.375068	0.593370
	C9237	C	0.926385	0.375358	0.585040
	C9238	C	0.922123	0.464303	0.581127
	C9239	C	0.913716	0.464183	0.573526
	C9240	C	0.909372	0.375213	0.569819
	C9241	C	0.913641	0.286208	0.573719
	C9242	C	0.922050	0.286363	0.581303
	C9243	C	0.900383	0.375124	0.561448
	C9244	C	0.961377	0.375172	0.587130
	C9245	C	0.969281	0.375027	0.574343
	C9246	C	0.972979	0.286086	0.568205
	C9247	C	0.980276	0.286250	0.556319
	C9248	C	0.984090	0.375148	0.550356
	C9249	C	0.980337	0.463976	0.556432
	C9250	C	0.973039	0.463877	0.568308
	C9251	C	0.991953	0.375201	0.537493
	H9252	H	0.983073	0.217134	0.551640
	H9253	H	0.970115	0.217134	0.572767
	H9254	H	0.987845	0.282713	0.646645
	H9255	H	0.972914	0.282821	0.632964
	H9256	H	0.948333	0.124655	0.588238
	H9257	H	0.949850	0.374840	0.628899
	H9258	H	0.890277	0.375688	0.672655
	H9259	H	1.005022	0.124908	0.535957
	H9260	H	0.925296	0.217343	0.584366
	H9261	H	0.910363	0.217585	0.570793
	H9262	H	0.913060	0.283667	0.661716
	H9263	H	0.927077	0.282936	0.642605
	H9264	H	0.910464	0.532858	0.570468
	H9265	H	0.925411	0.533273	0.584019
	H9266	H	0.927094	-0.033018	0.642721
	H9267	H	0.913095	-0.032679	0.661812
	H9268	H	0.972840	-0.033137	0.633233
	H9269	H	0.987737	-0.033067	0.646864
	H9270	H	0.970254	0.532988	0.572964
	H9271	H	0.983152	0.533091	0.551855
	Al9272	Al	0.952300	-0.500163	0.755804
	Al9273	Al	0.952302	-0.249427	0.755824
	Al9274	Al	0.889808	-0.250382	0.693491
	Al9275	Al	0.889816	-0.499320	0.693486
	O9276	O	0.961722	-0.458907	0.769556
	O9277	O	0.952660	-0.375035	0.745803
	O9278	O	0.951646	-0.124865	0.765671
	O9279	O	1.005374	-0.459068	0.804171
	O9280	O	0.941059	-0.458873	0.768316
	O9281	O	0.891735	-0.459071	0.763019
	O9282	O	0.941072	-0.290642	0.768357
	O9283	O	0.942754	-0.209509	0.741909
	O9284	O	0.899090	-0.208828	0.707382
	O9285	O	0.961769	-0.290775	0.769500
	O9286	O	0.962528	-0.208944	0.741191
	O9287	O	1.002394	-0.209211	0.687422
	O9288	O	0.891704	-0.291036	0.763056
	O9289	O	0.942930	-0.041213	0.741506
	O9290	O	0.899220	-0.040506	0.707079
	O9291	O	1.002423	-0.041295	0.687470
	O9292	O	0.962555	-0.041271	0.741251
	O9293	O	1.005375	-0.291030	0.804203
	O9294	O	0.881181	-0.124987	0.764020
	O9295	O	1.011999	-0.375014	0.680742
	C9296	C	0.987916	-0.285325	0.790212
	C9297	C	0.992431	-0.374791	0.793556
	C9298	C	0.987949	-0.464224	0.790094
	C9299	C	0.979200	-0.464387	0.783507
	C9300	C	0.974673	-0.374973	0.780204
	C9301	C	0.979172	-0.285431	0.783613
	C9302	C	0.965381	-0.375135	0.772509
	C9303	C	1.001714	-0.374845	0.801247
	C9304	C	0.936860	-0.374850	0.768193
	C9305	C	0.926254	-0.374889	0.767449
	C9306	C	0.921267	-0.285042	0.766554
	C9307	C	0.911538	-0.284973	0.764715
	C9308	C	0.906545	-0.374926	0.763786
	C9309	C	0.911538	-0.464703	0.764721
	C9310	C	0.921255	-0.464665	0.766563
	C9311	C	0.895924	-0.375027	0.763169
	C9312	C	0.939201	-0.125156	0.738730
	C9313	C	0.929876	-0.125164	0.731145
	C9314	C	0.925415	-0.035344	0.727638
	C9315	C	0.916642	-0.035152	0.721047
	C9316	C	0.912090	-0.124804	0.717868
	C9317	C	0.916556	-0.214609	0.721308
	C9318	C	0.925332	-0.214821	0.727880
	C9319	C	0.902787	-0.124619	0.710209
	C9320	C	0.965970	-0.125196	0.736890
	C9321	C	0.974571	-0.125177	0.725432
	C9322	C	0.978665	-0.214169	0.720000
	C9323	C	0.986583	-0.213954	0.709278
	C9324	C	0.990642	-0.125007	0.703794
	C9325	C	0.986570	-0.036071	0.709279
	C9326	C	0.978655	-0.036107	0.719999
	C9327	C	0.999078	-0.125213	0.691944
	H9328	H	0.989636	-0.282816	0.705071
	H9329	H	0.975628	-0.283228	0.724198
	H9330	H	0.991268	-0.215551	0.792885
	H9331	H	0.975760	-0.215950	0.781007
	H9332	H	0.952887	-0.374712	0.734988
	H9333	H	0.950433	-0.124927	0.776350
	H9334	H	0.882604	-0.125246	0.753418
	H9335	H	1.012306	-0.375456	0.691468
	H9336	H	0.928692	-0.284861	0.730504
	H9337	H	0.913119	-0.284273	0.718812
	H9338	H	0.907745	-0.214996	0.763998
	H9339	H	0.925022	-0.215088	0.767284
	H9340	H	0.913304	0.034571	0.718393
	H9341	H	0.928836	0.034389	0.730128
	H9342	H	0.925006	-0.534723	0.767312
	H9343	H	0.907825	-0.534639	0.763965
	H9344	H	0.975846	-0.533762	0.780869
	H9345	H	0.991347	-0.533820	0.792669
	H9346	H	0.975593	0.033152	0.724206
	H9347	H	0.989636	0.033192	0.705035
	Al9348	Al	0.952341	-0.000448	0.755744
	Al9349	Al	0.952340	0.250673	0.755858
	Al9350	Al	0.889802	0.249812	0.693431
	Al9351	Al	0.889813	0.000536	0.693326
	O9352	O	0.961710	0.041014	0.769600
	O9353	O	0.952739	0.125122	0.745822
	O9354	O	0.951655	0.375235	0.765736
	O9355	O	1.005314	0.040622	0.804457
	O9356	O	0.941110	0.040562	0.768249
	O9357	O	0.891828	0.040354	0.763135
	O9358	O	0.941154	0.208802	0.768337
	O9359	O	0.942838	0.290722	0.741819
	O9360	O	0.899192	0.291284	0.707199
	O9361	O	0.961758	0.209143	0.769580
	O9362	O	0.962525	0.291496	0.741278
	O9363	O	1.002331	0.290876	0.687431
	O9364	O	0.891727	0.208609	0.763186
	O9365	O	0.942865	0.458762	0.741734
	O9366	O	0.899213	0.459304	0.707204
	O9367	O	1.002357	0.459007	0.687494
	O9368	O	0.962566	0.459279	0.741308
	O9369	O	1.005331	0.208975	0.804309
	O9370	O	0.881178	0.374724	0.764031
	O9371	O	1.011977	0.125054	0.680718
	C9372	C	0.987902	0.214325	0.790297
	C9373	C	0.992411	0.124749	0.793638
	C9374	C	0.987947	0.035369	0.790177
	C9375	C	0.979193	0.035439	0.783509
	C9376	C	0.974697	0.124874	0.780150
	C9377	C	0.979157	0.214405	0.783631
	C9378	C	0.965402	0.125074	0.772483
	C9379	C	1.001705	0.124804	0.801361
	C9380	C	0.936920	0.124837	0.768176
	C9381	C	0.926314	0.125089	0.767484
	C9382	C	0.921322	0.215054	0.766603
	C9383	C	0.911589	0.215038	0.764749
	C9384	C	0.906588	0.125179	0.763859
	C9385	C	0.911575	0.035158	0.764752
	C9386	C	0.921312	0.035191	0.766582
	C9387	C	0.895973	0.124799	0.763297
	C9388	C	0.939207	0.374731	0.738767
	C9389	C	0.929912	0.374743	0.731120
	C9390	C	0.925436	0.464235	0.727693
	C9391	C	0.916678	0.464341	0.721075
	C9392	C	0.912153	0.374996	0.717782
	C9393	C	0.916616	0.285364	0.721217
	C9394	C	0.925370	0.285413	0.727825
	C9395	C	0.902875	0.375268	0.710152
	C9396	C	0.965968	0.375365	0.736956
	C9397	C	0.974550	0.375082	0.725469
	C9398	C	0.978633	0.285957	0.720026
	C9399	C	0.986535	0.285747	0.709280
	C9400	C	0.990594	0.374858	0.703779
	C9401	C	0.986564	0.464029	0.709305
	C9402	C	0.978652	0.464048	0.720027
	C9403	C	0.999013	0.374958	0.691955
	H9404	H	0.989589	0.216734	0.705027
	H9405	H	0.975595	0.216964	0.724270
	H9406	H	0.991237	0.284239	0.792988
	H9407	H	0.975792	0.283997	0.781077
	H9408	H	0.952976	0.125314	0.734979
	H9409	H	0.950389	0.375290	0.776367
	H9410	H	0.882464	0.374710	0.753370
	H9411	H	1.012314	0.124080	0.691452
	H9412	H	0.928717	0.215534	0.730414
	H9413	H	0.913219	0.215779	0.718634
	H9414	H	0.907843	0.285079	0.764027
	H9415	H	0.925075	0.285112	0.767303
	H9416	H	0.913355	0.533916	0.718406
	H9417	H	0.928835	0.533735	0.730200
	H9418	H	0.925073	-0.034701	0.767239
	H9419	H	0.907818	-0.034898	0.763979
	H9420	H	0.975832	-0.034074	0.780833
	H9421	H	0.991316	-0.034461	0.792773
	H9422	H	0.975635	0.532985	0.724298
	H9423	H	0.989620	0.533159	0.705107
	Al9424	Al	0.942539	-0.499985	0.836566
	Al9425	Al	0.942527	-0.249914	0.836561
	Al9426	Al	0.879998	-0.250350	0.774020
	Al9427	Al	0.880045	-0.500350	0.773981
	O9428	O	0.951403	-0.458886	0.851616
	O9429	O	0.943679	-0.374937	0.826529
	O9430	O	0.941365	-0.124888	0.846475
	O9431	O	0.996214	-0.459098	0.883788
	O9432	O	0.930852	-0.459464	0.847498
	O9433	O	0.881655	-0.459015	0.840116
	O9434	O	0.930827	-0.291152	0.847572
	O9435	O	0.933606	-0.208784	0.821522
	O9436	O	0.888914	-0.208737	0.789035
	O9437	O	0.951461	-0.291046	0.851483
	O9438	O	0.954247	-0.208794	0.825617
	O9439	O	1.003591	-0.209541	0.830874
	O9440	O	0.881710	-0.290905	0.840068
	O9441	O	0.933650	-0.040853	0.821357
	O9442	O	0.888914	-0.040994	0.789138
	O9443	O	1.003630	-0.041007	0.830903
	O9444	O	0.954245	-0.040960	0.825637
	O9445	O	0.996172	-0.291223	0.883885
	O9446	O	0.871112	-0.124404	0.840993
	O9447	O	1.014157	-0.374961	0.828148
	C9448	C	0.978329	-0.285469	0.870519
	C9449	C	0.983012	-0.375076	0.873520
	C9450	C	0.978369	-0.464780	0.870446
	C9451	C	0.969374	-0.465054	0.864602
	C9452	C	0.964707	-0.375393	0.861546
	C9453	C	0.969330	-0.285662	0.864657
	C9454	C	0.955166	-0.375006	0.854397
	C9455	C	0.992492	-0.375168	0.880917
	C9456	C	0.926668	-0.375312	0.847154
	C9457	C	0.916067	-0.375473	0.846035
	C9458	C	0.911103	-0.285399	0.844897
	C9459	C	0.901422	-0.285268	0.842619
	C9460	C	0.896451	-0.375407	0.841491
	C9461	C	0.901395	-0.465488	0.842656
	C9462	C	0.911088	-0.465522	0.844933
	C9463	C	0.885863	-0.375156	0.840389
	C9464	C	0.929924	-0.124852	0.818541
	C9465	C	0.920459	-0.124827	0.811090
	C9466	C	0.915824	-0.035394	0.807960
	C9467	C	0.906817	-0.035544	0.802104
	C9468	C	0.902174	-0.125261	0.799151
	C9469	C	0.906823	-0.214700	0.802227
	C9470	C	0.915828	-0.214592	0.808067
	C9471	C	0.892648	-0.124997	0.791918
	C9472	C	0.958458	-0.124952	0.825763
	C9473	C	0.969081	-0.125009	0.826364
	C9474	C	0.974080	-0.214879	0.827316
	C9475	C	0.983797	-0.214809	0.829183
	C9476	C	0.988808	-0.125067	0.830052
	C9477	C	0.983822	-0.035195	0.829004
	C9478	C	0.974097	-0.035233	0.827144
	C9479	C	0.999406	-0.125144	0.830756
	H9480	H	0.987548	-0.284878	0.830034
	H9481	H	0.970288	-0.284734	0.826665
	H9482	H	0.981761	-0.215007	0.872765
	H9483	H	0.965832	-0.215812	0.862453
	H9484	H	0.945231	-0.375254	0.815957
	H9485	H	0.939666	-0.124439	0.857058
	H9486	H	0.872736	-0.123940	0.830393
	H9487	H	1.012810	-0.375414	0.838777
	H9488	H	0.919260	-0.284691	0.810266
	H9489	H	0.903393	-0.284584	0.799950
	H9490	H	0.897707	-0.215095	0.841689
	H9491	H	0.914819	-0.215326	0.845771
	H9492	H	0.903392	0.034563	0.799779
	H9493	H	0.919289	0.034844	0.810074
	H9494	H	0.914807	-0.535540	0.845818
	H9495	H	0.897625	-0.535319	0.841779
	H9496	H	0.965939	-0.535326	0.862408
	H9497	H	0.981854	-0.534782	0.872701
	H9498	H	0.970349	0.034809	0.826320
	H9499	H	0.987581	0.034707	0.829656
	Al9500	Al	0.942553	0.000348	0.836501
	Al9501	Al	0.942575	0.250443	0.836427
	Al9502	Al	0.880048	0.249750	0.774045
	Al9503	Al	0.880078	-0.000137	0.774001
	O9504	O	0.951432	0.041214	0.851635
	O9505	O	0.943689	0.125379	0.826492
	O9506	O	0.941336	0.374706	0.846496
	O9507	O	0.996160	0.041097	0.883845
	O9508	O	0.930822	0.040786	0.847342
	O9509	O	0.881638	0.042294	0.840090
	O9510	O	0.930851	0.209094	0.847544
	O9511	O	0.933672	0.291096	0.821380
	O9512	O	0.888969	0.291276	0.789079
	O9513	O	0.951505	0.209173	0.851385
	O9514	O	0.954232	0.291400	0.825531
	O9515	O	1.003657	0.290861	0.830791
	O9516	O	0.881672	0.210537	0.840270
	O9517	O	0.933648	0.459124	0.821408
	O9518	O	0.888966	0.459048	0.789108
	O9519	O	1.003677	0.459289	0.830768
	O9520	O	0.954277	0.459674	0.825710
	O9521	O	0.996177	0.209106	0.883923
	O9522	O	0.871106	0.375721	0.841031
	O9523	O	1.014200	0.124943	0.828129
	C9524	C	0.978364	0.215153	0.870500
	C9525	C	0.983020	0.125593	0.873570
	C9526	C	0.978388	0.035769	0.870440
	C9527	C	0.969371	0.035752	0.864614
	C9528	C	0.964695	0.125310	0.861612
	C9529	C	0.969338	0.215203	0.864700
	C9530	C	0.955191	0.125128	0.854382
	C9531	C	0.992471	0.125283	0.880960
	C9532	C	0.926666	0.125107	0.847095
	C9533	C	0.916055	0.125313	0.846014
	C9534	C	0.911106	0.215453	0.844946
	C9535	C	0.901431	0.215793	0.842672
	C9536	C	0.896452	0.125978	0.841534
	C9537	C	0.901409	0.035869	0.842600
	C9538	C	0.911080	0.035609	0.844841
	C9539	C	0.885846	0.126267	0.840480
	C9540	C	0.929964	0.375101	0.818470
	C9541	C	0.920485	0.375290	0.811167
	C9542	C	0.915839	0.464956	0.808105
	C9543	C	0.906851	0.464886	0.802269
	C9544	C	0.902205	0.375167	0.799177
	C9545	C	0.906890	0.285579	0.802146
	C9546	C	0.915877	0.285561	0.807988
	C9547	C	0.892707	0.375153	0.791943
	C9548	C	0.958455	0.375452	0.825820
	C9549	C	0.969069	0.375063	0.826438
	C9550	C	0.974072	0.285081	0.827376
	C9551	C	0.983816	0.285188	0.829178
	C9552	C	0.988831	0.375218	0.830018
	C9553	C	0.983803	0.464857	0.828935
	C9554	C	0.974075	0.464987	0.827154
	C9555	C	0.999453	0.375054	0.830674
	H9556	H	0.987579	0.215254	0.829918
	H9557	H	0.970306	0.215334	0.826762
	H9558	H	0.981870	0.285026	0.872676
	H9559	H	0.965904	0.285391	0.862494
	H9560	H	0.945069	0.125372	0.815936
	H9561	H	0.939686	0.374441	0.857016
	H9562	H	0.872752	0.375984	0.830465
	H9563	H	1.013064	0.124655	0.838832
	H9564	H	0.919371	0.215479	0.810177
	H9565	H	0.903439	0.215401	0.799881
	H9566	H	0.897691	0.285834	0.841872
	H9567	H	0.914844	0.285212	0.845999
	H9568	H	0.903380	0.534957	0.800081
	H9569	H	0.919294	0.534988	0.810408
	H9570	H	0.914802	-0.034664	0.845795
	H9571	H	0.897640	-0.034362	0.841768
	H9572	H	0.965937	-0.034413	0.862303
	H9573	H	0.981852	-0.034564	0.872538
	H9574	H	0.970323	0.535038	0.826347
	H9575	H	0.987572	0.534676	0.829498
	Al9576	Al	0.932443	-0.499508	0.913468
	Al9577	Al	0.932438	-0.249365	0.913551
	Al9578	Al	0.869945	-0.249750	0.850897
	Al9579	Al	0.869907	-0.499583	0.851072
	O9580	O	0.941302	-0.458449	0.928649
	O9581	O	0.933625	-0.374370	0.903524
	O9582	O	0.931298	-0.124388	0.923524
	O9583	O	0.986022	-0.458649	0.960895
	O9584	O	0.920683	-0.458935	0.924304
	O9585	O	0.871340	-0.459371	0.919165
	O9586	O	0.920721	-0.290860	0.924322
	O9587	O	0.923549	-0.208423	0.898460
	O9588	O	0.878812	-0.208369	0.866000
	O9589	O	0.941322	-0.290528	0.928592
	O9590	O	0.944125	-0.208502	0.902643
	O9591	O	0.993345	-0.208858	0.909876
	O9592	O	0.871350	-0.291146	0.919106
	O9593	O	0.923444	-0.040547	0.898541
	O9594	O	0.878737	-0.040781	0.866174
	O9595	O	0.993324	-0.040795	0.909898
	O9596	O	0.944143	-0.040430	0.902650
	O9597	O	0.985996	-0.290824	0.961066
	O9598	O	0.860866	-0.125108	0.921740
	O9599	O	1.003863	-0.375113	0.908941
	C9600	C	0.968122	-0.284801	0.947944
	C9601	C	0.972763	-0.374485	0.951001
	C9602	C	0.968109	-0.464083	0.947924
	C9603	C	0.959113	-0.464157	0.942056
	C9604	C	0.954453	-0.374495	0.939000
	C9605	C	0.959124	-0.284828	0.942067
	C9606	C	0.945011	-0.374473	0.931560
	C9607	C	0.982271	-0.374636	0.958163
	C9608	C	0.916496	-0.374781	0.924202
	C9609	C	0.905891	-0.374824	0.923628
	C9610	C	0.900885	-0.285390	0.922679
	C9611	C	0.891145	-0.285492	0.920897
	C9612	C	0.886157	-0.375316	0.920049
	C9613	C	0.891151	-0.464966	0.921058
	C9614	C	0.900899	-0.464864	0.922824
	C9615	C	0.875545	-0.375270	0.919284
	C9616	C	0.919771	-0.124606	0.895611
	C9617	C	0.910266	-0.124592	0.888407
	C9618	C	0.905571	-0.035012	0.885502
	C9619	C	0.896566	-0.035061	0.879645
	C9620	C	0.891973	-0.124640	0.876373
	C9621	C	0.896621	-0.214155	0.879445
	C9622	C	0.905620	-0.214211	0.885291
	C9623	C	0.882498	-0.124467	0.869008
	C9624	C	0.948344	-0.124523	0.902901
	C9625	C	0.958925	-0.124826	0.903984
	C9626	C	0.963897	-0.214810	0.904994
	C9627	C	0.973585	-0.215161	0.907252
	C9628	C	0.978553	-0.125276	0.908490
	C9629	C	0.973579	-0.035461	0.907416
	C9630	C	0.963903	-0.034989	0.905145
	C9631	C	0.989139	-0.124948	0.909546
	H9632	H	0.977309	-0.285181	0.908152
	H9633	H	0.960138	-0.284796	0.904057
	H9634	H	0.971566	-0.214880	0.950205
	H9635	H	0.955701	-0.214502	0.939821
	H9636	H	0.935269	-0.374087	0.892947
	H9637	H	0.929778	-0.124824	0.934059
	H9638	H	0.862090	-0.125033	0.911046
	H9639	H	1.002170	-0.375391	0.919572
	H9640	H	0.909089	-0.284226	0.887466
	H9641	H	0.893157	-0.284088	0.877194
	H9642	H	0.887428	-0.215479	0.920111
	H9643	H	0.904627	-0.215562	0.923322
	H9644	H	0.893063	0.035096	0.877563
	H9645	H	0.908981	0.035095	0.887813
	H9646	H	0.904624	-0.534747	0.923562
	H9647	H	0.887400	-0.534830	0.920402
	H9648	H	0.955678	-0.534200	0.939789
	H9649	H	0.971544	-0.534281	0.950178
	H9650	H	0.960194	0.035469	0.904342
	H9651	H	0.977293	0.034395	0.908419
	Al9652	Al	0.932401	0.000633	0.913548
	Al9653	Al	0.932446	0.250467	0.913493
	Al9654	Al	0.869911	0.250429	0.850996
	Al9655	Al	0.869925	0.000500	0.851001
	O9656	O	0.941338	0.041784	0.928594
	O9657	O	0.933587	0.125364	0.903537
	O9658	O	0.931310	0.375506	0.923474
	O9659	O	0.986075	0.041463	0.960949
	O9660	O	0.920721	0.041411	0.924532
	O9661	O	0.871408	0.040696	0.919153
	O9662	O	0.920742	0.209551	0.924371
	O9663	O	0.923574	0.291447	0.898398
	O9664	O	0.878813	0.291767	0.866090
	O9665	O	0.941317	0.209837	0.928655
	O9666	O	0.944157	0.291428	0.902639
	O9667	O	0.993401	0.291370	0.909951
	O9668	O	0.871384	0.209049	0.919073
	O9669	O	0.923524	0.459191	0.898446
	O9670	O	0.878803	0.459292	0.866180
	O9671	O	0.993355	0.459258	0.909879
	O9672	O	0.944176	0.459439	0.902606
	O9673	O	0.986029	0.209437	0.961015
	O9674	O	0.860862	0.375175	0.921804
	O9675	O	1.003863	0.125664	0.909003
	C9676	C	0.968167	0.214983	0.947809
	C9677	C	0.972800	0.125350	0.950906
	C9678	C	0.968143	0.035826	0.947856
	C9679	C	0.959131	0.035757	0.942012
	C9680	C	0.954496	0.125483	0.938936
	C9681	C	0.959160	0.214987	0.941956
	C9682	C	0.945006	0.125583	0.931593
	C9683	C	0.982328	0.125360	0.958142
	C9684	C	0.916530	0.125434	0.924284
	C9685	C	0.905917	0.125445	0.923673
	C9686	C	0.900922	0.215108	0.922667
	C9687	C	0.891184	0.215029	0.920819
	C9688	C	0.886203	0.125131	0.919922
	C9689	C	0.891199	0.035465	0.920982
	C9690	C	0.900931	0.035548	0.922831
	C9691	C	0.875589	0.124947	0.919280
	C9692	C	0.919816	0.375269	0.895534
	C9693	C	0.910301	0.375066	0.888322
	C9694	C	0.905624	0.464594	0.885368
	C9695	C	0.896616	0.464586	0.879531
	C9696	C	0.891992	0.375073	0.876350
	C9697	C	0.896609	0.285470	0.879542
	C9698	C	0.905608	0.285575	0.885353
	C9699	C	0.882521	0.375453	0.869063
	C9700	C	0.948360	0.375411	0.902963
	C9701	C	0.958943	0.375520	0.903965
	C9702	C	0.963893	0.285496	0.905131
	C9703	C	0.973578	0.285332	0.907415
	C9704	C	0.978592	0.374990	0.908507
	C9705	C	0.973624	0.464964	0.907443
	C9706	C	0.963928	0.465257	0.905197
	C9707	C	0.989178	0.375224	0.909576
	H9708	H	0.977299	0.215171	0.908281
	H9709	H	0.960145	0.215476	0.904249
	H9710	H	0.971639	0.285111	0.949966
	H9711	H	0.955732	0.285096	0.939647
	H9712	H	0.935169	0.125280	0.893006
	H9713	H	0.929842	0.375457	0.934019
	H9714	H	0.862353	0.374795	0.911205
	H9715	H	1.002329	0.125214	0.919607
	H9716	H	0.909075	0.215385	0.887592
	H9717	H	0.893152	0.215244	0.877309
	H9718	H	0.887430	0.284738	0.919996
	H9719	H	0.904679	0.285224	0.923261
	H9720	H	0.893155	0.534704	0.877324
	H9721	H	0.909064	0.534635	0.887647
	H9722	H	0.904674	-0.034362	0.923515
	H9723	H	0.887473	-0.034761	0.920291
	H9724	H	0.955693	-0.034415	0.939800
	H9725	H	0.971604	-0.034271	0.950082
	H9726	H	0.960208	0.535422	0.904338
	H9727	H	0.977337	0.535161	0.908354
