data_Molecule from HDF5

_cell_length_a		137.760895
_cell_length_b		13.368225
_cell_length_c		95.610785
_cell_angle_alpha	90.005323
_cell_angle_beta	91.685751
_cell_angle_gamma	90.005215
_symmetry_space_group_name_H-M	'P 1'
_symmetry_Int_Tables_number		1

loop_
	_symmetry_equiv_pos_as_xyz
	x,y,z

loop_
	_atom_site_label
	_atom_site_type_symbol
	_atom_site_fract_x
	_atom_site_fract_y
	_atom_site_fract_z
	Al0	Al	0.064097	-0.500391	0.056554
	Al1	Al	0.064053	-0.250557	0.056562
	Al2	Al	0.005000	-0.250154	-0.017733
	Al3	Al	0.004977	-0.500142	-0.017666
	O4	O	0.073684	-0.459296	0.070346
	O5	O	0.064302	-0.375268	0.047882
	O6	O	0.063882	-0.125196	0.065278
	O7	O	0.113587	-0.459244	0.117176
	O8	O	0.053868	-0.459173	0.068408
	O9	O	0.011862	-0.459376	0.107270
	O10	O	0.053847	-0.291046	0.068381
	O11	O	0.054509	-0.209125	0.042794
	O12	O	0.014668	-0.209527	-0.004040
	O13	O	0.073745	-0.291057	0.070298
	O14	O	0.074277	-0.209018	0.044715
	O15	O	0.116414	-0.209319	0.005891
	O16	O	0.011873	-0.291242	0.107329
	O17	O	0.054483	-0.040950	0.042881
	O18	O	0.014598	-0.041347	-0.003984
	O19	O	0.116407	-0.041406	0.005914
	O20	O	0.074355	-0.040862	0.044728
	O21	O	0.113594	-0.291308	0.117118
	O22	O	0.001903	-0.125385	0.110393
	O23	O	0.126441	-0.375280	0.002794
	C24	C	0.097658	-0.286440	0.098297
	C25	C	0.101685	-0.375533	0.103132
	C26	C	0.097543	-0.464596	0.098474
	C27	C	0.089618	-0.464559	0.089135
	C28	C	0.085635	-0.375271	0.084241
	C29	C	0.089729	-0.286392	0.088961
	C30	C	0.077069	-0.375208	0.074180
	C31	C	0.110224	-0.375213	0.113267
	C32	C	0.050318	-0.375358	0.071604
	C33	C	0.041334	-0.375220	0.080037
	C34	C	0.037074	-0.286254	0.084055
	C35	C	0.028704	-0.286379	0.091793
	C36	C	0.024402	-0.375324	0.095699
	C37	C	0.028670	-0.464378	0.091724
	C38	C	0.037044	-0.464227	0.083958
	C39	C	0.015426	-0.375264	0.104138
	C40	C	0.051120	-0.125087	0.038992
	C41	C	0.042594	-0.124852	0.028835
	C42	C	0.038514	-0.035688	0.024088
	C43	C	0.030599	-0.035906	0.014742
	C44	C	0.026535	-0.125052	0.009968
	C45	C	0.030632	-0.214206	0.014698
	C46	C	0.038549	-0.214175	0.024053
	C47	C	0.018002	-0.125551	-0.000155
	C48	C	0.077881	-0.125114	0.041554
	C49	C	0.086896	-0.125676	0.033201
	C50	C	0.091193	-0.214743	0.029254
	C51	C	0.099569	-0.214620	0.021521
	C52	C	0.103869	-0.125503	0.017559
	C53	C	0.099570	-0.036556	0.021509
	C54	C	0.091196	-0.036677	0.029243
	C55	C	0.112854	-0.125390	0.009096
	H56	H	0.102764	-0.283782	0.018411
	H57	H	0.087923	-0.283374	0.032247
	H58	H	0.100750	-0.217460	0.101925
	H59	H	0.086703	-0.217329	0.085325
	H60	H	0.064603	-0.375230	0.038348
	H61	H	0.063725	-0.125197	0.074818
	H62	H	0.001929	-0.125511	0.100782
	H63	H	0.126196	-0.374912	0.012353
	H64	H	0.041617	-0.283062	0.027748
	H65	H	0.027602	-0.283424	0.011041
	H66	H	0.025520	-0.217326	0.094941
	H67	H	0.040330	-0.217383	0.081081
	H68	H	0.027532	0.033173	0.011106
	H69	H	0.041557	0.033596	0.027785
	H70	H	0.040260	-0.533226	0.080913
	H71	H	0.025466	-0.533188	0.094820
	H72	H	0.086474	-0.533503	0.085583
	H73	H	0.100521	-0.533630	0.102262
	H74	H	0.087932	0.032228	0.032218
	H75	H	0.102799	0.032340	0.018419
	Al76	Al	0.064109	-0.000211	0.056602
	Al77	Al	0.064115	0.249515	0.056516
	Al78	Al	0.004998	0.249661	-0.017759
	Al79	Al	0.004982	-0.000075	-0.017747
	O80	O	0.073731	0.041175	0.070378
	O81	O	0.064365	0.124664	0.047865
	O82	O	0.063860	0.374607	0.065247
	O83	O	0.113550	0.041186	0.117235
	O84	O	0.053923	0.040902	0.068465
	O85	O	0.011888	0.040834	0.107275
	O86	O	0.053953	0.208929	0.068459
	O87	O	0.054495	0.290465	0.042840
	O88	O	0.014657	0.290341	-0.004022
	O89	O	0.073776	0.209209	0.070243
	O90	O	0.074290	0.290934	0.044601
	O91	O	0.116392	0.290929	0.005956
	O92	O	0.011896	0.209077	0.107259
	O93	O	0.054504	0.458806	0.042802
	O94	O	0.014638	0.458497	-0.003990
	O95	O	0.116447	0.458889	0.005949
	O96	O	0.074309	0.458943	0.044652
	O97	O	0.113585	0.209227	0.117233
	O98	O	0.001857	0.374862	0.110403
	O99	O	0.126385	0.124823	0.002775
	C100	C	0.097719	0.214491	0.098331
	C101	C	0.101699	0.125370	0.103217
	C102	C	0.097601	0.036256	0.098532
	C103	C	0.089666	0.036081	0.089185
	C104	C	0.085669	0.125291	0.084310
	C105	C	0.089791	0.214381	0.088973
	C106	C	0.077118	0.125124	0.074206
	C107	C	0.110208	0.125099	0.113314
	C108	C	0.050377	0.124865	0.071644
	C109	C	0.041390	0.124546	0.080100
	C110	C	0.037157	0.213737	0.084101
	C111	C	0.028783	0.213901	0.091838
	C112	C	0.024464	0.124767	0.095706
	C113	C	0.028698	0.035483	0.091705
	C114	C	0.037077	0.035373	0.083989
	C115	C	0.015427	0.125050	0.104068
	C116	C	0.051140	0.374688	0.038982
	C117	C	0.042612	0.374470	0.028825
	C118	C	0.038574	0.463724	0.024016
	C119	C	0.030645	0.463834	0.014652
	C120	C	0.026567	0.374535	0.009946
	C121	C	0.030580	0.285233	0.014779
	C122	C	0.038501	0.285247	0.024136
	C123	C	0.018034	0.374422	-0.000198
	C124	C	0.077893	0.375032	0.041497
	C125	C	0.086882	0.375136	0.033103
	C126	C	0.091161	0.286129	0.029116
	C127	C	0.099542	0.286325	0.021393
	C128	C	0.103852	0.375340	0.017520
	C129	C	0.099584	0.464375	0.021533
	C130	C	0.091208	0.464216	0.029279
	C131	C	0.112850	0.375109	0.009145
	H132	H	0.102789	0.217256	0.018365
	H133	H	0.087933	0.217141	0.032115
	H134	H	0.100830	0.283954	0.101869
	H135	H	0.086789	0.283623	0.085243
	H136	H	0.064663	0.124697	0.038326
	H137	H	0.063619	0.374461	0.074814
	H138	H	0.002020	0.374635	0.100890
	H139	H	0.126146	0.124652	0.012377
	H140	H	0.041499	0.216154	0.027842
	H141	H	0.027493	0.215972	0.011163
	H142	H	0.025564	0.282938	0.094901
	H143	H	0.040426	0.282920	0.081100
	H144	H	0.027629	0.533229	0.010957
	H145	H	0.041648	0.532985	0.027668
	H146	H	0.040282	-0.033767	0.080871
	H147	H	0.025411	-0.033780	0.094659
	H148	H	0.086574	-0.033280	0.085636
	H149	H	0.100620	-0.032911	0.102193
	H150	H	0.088021	0.533273	0.032434
	H151	H	0.102858	0.533615	0.018610
	Al152	Al	0.060748	-0.499890	0.193464
	Al153	Al	0.060762	-0.250143	0.193517
	Al154	Al	0.001669	-0.250072	0.119202
	Al155	Al	0.001630	-0.500225	0.119119
	O156	O	0.070414	-0.459216	0.207174
	O157	O	0.061049	-0.374798	0.184739
	O158	O	0.060539	-0.125270	0.202273
	O159	O	0.110286	-0.459348	0.254083
	O160	O	0.050555	-0.458919	0.205304
	O161	O	0.008546	-0.459130	0.244248
	O162	O	0.050551	-0.290768	0.205358
	O163	O	0.051140	-0.209084	0.179812
	O164	O	0.011293	-0.209146	0.132904
	O165	O	0.070422	-0.291010	0.207197
	O166	O	0.071020	-0.209025	0.181758
	O167	O	0.112981	-0.209076	0.142802
	O168	O	0.008531	-0.290961	0.244184
	O169	O	0.051133	-0.040867	0.179846
	O170	O	0.011306	-0.041170	0.132903
	O171	O	0.113002	-0.040731	0.142790
	O172	O	0.070955	-0.040965	0.181681
	O173	O	0.110275	-0.291088	0.254038
	O174	O	-0.001478	-0.125233	0.247334
	O175	O	0.122954	-0.375013	0.139562
	C176	C	0.094301	-0.286004	0.235314
	C177	C	0.098362	-0.375328	0.240074
	C178	C	0.094296	-0.464552	0.235293
	C179	C	0.086376	-0.464506	0.225947
	C180	C	0.082287	-0.375174	0.221207
	C181	C	0.086367	-0.285842	0.225983
	C182	C	0.073767	-0.375011	0.211079
	C183	C	0.106894	-0.375142	0.250188
	C184	C	0.047003	-0.374864	0.208571
	C185	C	0.038014	-0.375055	0.216984
	C186	C	0.033737	-0.285865	0.220940
	C187	C	0.025360	-0.285659	0.228693
	C188	C	0.021087	-0.375060	0.232648
	C189	C	0.025368	-0.464414	0.228694
	C190	C	0.033741	-0.464431	0.220939
	C191	C	0.012073	-0.375205	0.241035
	C192	C	0.047766	-0.125084	0.175959
	C193	C	0.039242	-0.125325	0.165845
	C194	C	0.035193	-0.036418	0.161049
	C195	C	0.027260	-0.036178	0.151689
	C196	C	0.023196	-0.125126	0.146926
	C197	C	0.027315	-0.214213	0.151610
	C198	C	0.035238	-0.214339	0.160963
	C199	C	0.014692	-0.125256	0.136769
	C200	C	0.074535	-0.124849	0.178524
	C201	C	0.083524	-0.124664	0.170073
	C202	C	0.087853	-0.213840	0.166238
	C203	C	0.096218	-0.213836	0.158463
	C204	C	0.100449	-0.124725	0.154389
	C205	C	0.096094	-0.035461	0.158182
	C206	C	0.087721	-0.035414	0.165937
	C207	C	0.109449	-0.124747	0.145985
	H208	H	0.099504	-0.282738	0.155553
	H209	H	0.084654	-0.283142	0.169335
	H210	H	0.097368	-0.216723	0.238980
	H211	H	0.083315	-0.216889	0.222308
	H212	H	0.061334	-0.374343	0.175147
	H213	H	0.060340	-0.124607	0.211826
	H214	H	-0.001268	-0.125092	0.237798
	H215	H	0.122770	-0.374816	0.149125
	H216	H	0.038351	-0.283444	0.164490
	H217	H	0.024303	-0.283048	0.147864
	H218	H	0.022137	-0.216654	0.231768
	H219	H	0.036977	-0.216779	0.217884
	H220	H	0.024239	0.032784	0.148028
	H221	H	0.038267	0.032497	0.164636
	H222	H	0.036971	-0.533571	0.217881
	H223	H	0.022140	-0.533764	0.231742
	H224	H	0.083323	-0.533706	0.222305
	H225	H	0.097392	-0.533842	0.238917
	H226	H	0.084418	0.033500	0.168884
	H227	H	0.099290	0.033470	0.155061
	Al228	Al	0.060766	-0.000103	0.193533
	Al229	Al	0.060715	0.249736	0.193501
	Al230	Al	0.001665	0.249881	0.119106
	Al231	Al	0.001687	-0.000035	0.119109
	O232	O	0.070429	0.041315	0.207216
	O233	O	0.060935	0.124783	0.184817
	O234	O	0.060537	0.374806	0.202180
	O235	O	0.110265	0.041237	0.254028
	O236	O	0.050521	0.040912	0.205366
	O237	O	0.008529	0.040747	0.244178
	O238	O	0.050537	0.209324	0.205411
	O239	O	0.051094	0.290834	0.179768
	O240	O	0.011294	0.290616	0.132867
	O241	O	0.070376	0.209100	0.207237
	O242	O	0.070964	0.290656	0.181685
	O243	O	0.113058	0.290604	0.142894
	O244	O	0.008553	0.209033	0.244212
	O245	O	0.051109	0.458765	0.179730
	O246	O	0.011326	0.458831	0.132782
	O247	O	0.113038	0.458749	0.142841
	O248	O	0.070974	0.458992	0.181617
	O249	O	0.110270	0.209394	0.254110
	O250	O	-0.001475	0.375027	0.247372
	O251	O	0.123061	0.124775	0.139626
	C252	C	0.094299	0.214134	0.235333
	C253	C	0.098401	0.125322	0.240059
	C254	C	0.094380	0.036413	0.235217
	C255	C	0.086464	0.036323	0.225892
	C256	C	0.082343	0.125189	0.221190
	C257	C	0.086395	0.214068	0.226000
	C258	C	0.073775	0.125157	0.211075
	C259	C	0.106913	0.125431	0.250199
	C260	C	0.047007	0.125300	0.208619
	C261	C	0.038019	0.125002	0.217029
	C262	C	0.033782	0.214297	0.221055
	C263	C	0.025418	0.214280	0.228799
	C264	C	0.021118	0.125042	0.232643
	C265	C	0.025347	0.035741	0.228615
	C266	C	0.033707	0.035713	0.220846
	C267	C	0.012107	0.124796	0.241024
	C268	C	0.047722	0.374793	0.175877
	C269	C	0.039219	0.374854	0.165773
	C270	C	0.035152	0.463885	0.160986
	C271	C	0.027254	0.463864	0.151644
	C272	C	0.023188	0.374870	0.146825
	C273	C	0.027222	0.285921	0.151691
	C274	C	0.035134	0.285819	0.161025
	C275	C	0.014666	0.374778	0.136744
	C276	C	0.074497	0.374805	0.178440
	C277	C	0.083514	0.374784	0.170041
	C278	C	0.087816	0.285662	0.166124
	C279	C	0.096198	0.285631	0.158405
	C280	C	0.100479	0.374832	0.154448
	C281	C	0.096141	0.463920	0.158317
	C282	C	0.087767	0.464004	0.166046
	C283	C	0.109503	0.374526	0.146072
	H284	H	0.099474	0.216757	0.155359
	H285	H	0.084562	0.216599	0.169160
	H286	H	0.097346	0.282888	0.239013
	H287	H	0.083313	0.283002	0.222396
	H288	H	0.061143	0.124942	0.175277
	H289	H	0.060453	0.375541	0.211768
	H290	H	-0.001344	0.375258	0.237778
	H291	H	0.122928	0.125209	0.149164
	H292	H	0.038161	0.216915	0.164773
	H293	H	0.024136	0.216972	0.148038
	H294	H	0.022232	0.283288	0.231922
	H295	H	0.037081	0.283043	0.218131
	H296	H	0.024181	0.532829	0.148000
	H297	H	0.038187	0.532695	0.164729
	H298	H	0.036926	-0.033324	0.217728
	H299	H	0.022062	-0.033222	0.231585
	H300	H	0.083407	-0.032457	0.222195
	H301	H	0.097461	-0.032552	0.238808
	H302	H	0.084513	0.533016	0.169054
	H303	H	0.099355	0.532749	0.155256
	Al304	Al	0.057494	-0.499876	0.330282
	Al305	Al	0.057482	-0.250089	0.330354
	Al306	Al	-0.001688	-0.250126	0.256052
	Al307	Al	-0.001693	-0.499988	0.256071
	O308	O	0.067214	-0.459173	0.343949
	O309	O	0.057642	-0.375081	0.321609
	O310	O	0.057257	-0.125046	0.339082
	O311	O	0.107604	-0.459102	0.389803
	O312	O	0.047330	-0.458971	0.342216
	O313	O	0.005229	-0.459029	0.380989
	O314	O	0.047309	-0.290845	0.342284
	O315	O	0.047783	-0.209281	0.316700
	O316	O	0.007950	-0.209182	0.269791
	O317	O	0.067170	-0.290889	0.343870
	O318	O	0.067704	-0.209459	0.318443
	O319	O	0.109704	-0.209300	0.279671
	O320	O	0.005202	-0.290966	0.380845
	O321	O	0.047813	-0.041019	0.316683
	O322	O	0.007974	-0.041192	0.269733
	O323	O	0.109710	-0.041281	0.279583
	O324	O	0.067664	-0.041322	0.318479
	O325	O	0.107574	-0.291054	0.389813
	O326	O	-0.004748	-0.124909	0.384073
	O327	O	0.119803	-0.374987	0.276470
	C328	C	0.091374	-0.285530	0.371518
	C329	C	0.095465	-0.374880	0.376203
	C330	C	0.091361	-0.463891	0.371507
	C331	C	0.083321	-0.463993	0.362369
	C332	C	0.079189	-0.374749	0.357742
	C333	C	0.083326	-0.285584	0.362352
	C334	C	0.070592	-0.374967	0.347734
	C335	C	0.104146	-0.375030	0.386049
	C336	C	0.043745	-0.375050	0.345425
	C337	C	0.034751	-0.375512	0.353795
	C338	C	0.030423	-0.286348	0.357655
	C339	C	0.022048	-0.286529	0.365357
	C340	C	0.017791	-0.375665	0.369383
	C341	C	0.022098	-0.464935	0.365500
	C342	C	0.030480	-0.464854	0.357771
	C343	C	0.008770	-0.375117	0.377740
	C344	C	0.044425	-0.125060	0.312818
	C345	C	0.035881	-0.125221	0.302689
	C346	C	0.031881	-0.036288	0.297822
	C347	C	0.023960	-0.036035	0.288475
	C348	C	0.019871	-0.125012	0.283772
	C349	C	0.023865	-0.213968	0.288662
	C350	C	0.031777	-0.214185	0.298006
	C351	C	0.011347	-0.125272	0.273588
	C352	C	0.071236	-0.125422	0.315292
	C353	C	0.080220	-0.125144	0.306863
	C354	C	0.084495	-0.214451	0.302896
	C355	C	0.092878	-0.214169	0.295174
	C356	C	0.097180	-0.124874	0.291253
	C357	C	0.092906	-0.035653	0.295246
	C358	C	0.084540	-0.036024	0.302993
	C359	C	0.106174	-0.125095	0.282829
	H360	H	0.096103	-0.283153	0.292097
	H361	H	0.081233	-0.283586	0.305881
	H362	H	0.094498	-0.216187	0.375003
	H363	H	0.080250	-0.216426	0.358657
	H364	H	0.057786	-0.375154	0.312034
	H365	H	0.056936	-0.125578	0.348646
	H366	H	-0.004556	-0.124948	0.374525
	H367	H	0.119726	-0.374599	0.286022
	H368	H	0.034753	-0.283399	0.301708
	H369	H	0.020800	-0.283076	0.285027
	H370	H	0.018781	-0.217608	0.368323
	H371	H	0.033623	-0.217398	0.354563
	H372	H	0.020993	0.033011	0.284706
	H373	H	0.034958	0.032587	0.301434
	H374	H	0.033753	-0.533819	0.354757
	H375	H	0.018836	-0.533946	0.368596
	H376	H	0.080285	-0.533389	0.358777
	H377	H	0.094481	-0.533064	0.375044
	H378	H	0.081347	0.033132	0.306128
	H379	H	0.096166	0.033432	0.292224
	Al380	Al	0.057492	0.000100	0.330370
	Al381	Al	0.057514	0.249824	0.330322
	Al382	Al	-0.001676	0.249885	0.256076
	Al383	Al	-0.001679	-0.000111	0.256023
	O384	O	0.067241	0.040858	0.343956
	O385	O	0.057687	0.124779	0.321626
	O386	O	0.057335	0.374827	0.338981
	O387	O	0.107557	0.040745	0.389946
	O388	O	0.047321	0.041286	0.342274
	O389	O	0.005229	0.041184	0.380954
	O390	O	0.047295	0.209205	0.342169
	O391	O	0.047810	0.290546	0.316634
	O392	O	0.007948	0.290805	0.269835
	O393	O	0.067199	0.208703	0.343996
	O394	O	0.067673	0.290526	0.318386
	O395	O	0.109750	0.290800	0.279607
	O396	O	0.005183	0.208964	0.380877
	O397	O	0.047834	0.458616	0.316599
	O398	O	0.007961	0.458902	0.269762
	O399	O	0.109795	0.458919	0.279610
	O400	O	0.067700	0.458745	0.318439
	O401	O	0.107576	0.208628	0.389904
	O402	O	-0.004799	0.375238	0.384090
	O403	O	0.119704	0.125043	0.276449
	C404	C	0.091388	0.214113	0.371578
	C405	C	0.095518	0.124966	0.376202
	C406	C	0.091406	0.035931	0.371522
	C407	C	0.083381	0.035984	0.362350
	C408	C	0.079257	0.124971	0.357719
	C409	C	0.083364	0.214146	0.362415
	C410	C	0.070642	0.124852	0.347794
	C411	C	0.104129	0.124785	0.386145
	C412	C	0.043746	0.125263	0.345422
	C413	C	0.034770	0.125198	0.353812
	C414	C	0.030431	0.214199	0.357639
	C415	C	0.022054	0.214506	0.365382
	C416	C	0.017792	0.125410	0.369388
	C417	C	0.022150	0.036301	0.365556
	C418	C	0.030522	0.036116	0.357820
	C419	C	0.008771	0.125125	0.377729
	C420	C	0.044443	0.374538	0.312779
	C421	C	0.035897	0.374650	0.302655
	C422	C	0.031869	0.463639	0.297846
	C423	C	0.023940	0.463802	0.288513
	C424	C	0.019846	0.374820	0.283811
	C425	C	0.023838	0.285717	0.288669
	C426	C	0.031781	0.285804	0.297993
	C427	C	0.011321	0.374818	0.273698
	C428	C	0.071240	0.374735	0.315262
	C429	C	0.080261	0.374685	0.306858
	C430	C	0.084514	0.285721	0.302796
	C431	C	0.092873	0.286013	0.295039
	C432	C	0.097200	0.375085	0.291203
	C433	C	0.092962	0.464203	0.295279
	C434	C	0.084600	0.463984	0.303031
	C435	C	0.106233	0.375170	0.282811
	H436	H	0.096114	0.217264	0.291891
	H437	H	0.081264	0.216854	0.305792
	H438	H	0.094447	0.283476	0.375231
	H439	H	0.080262	0.283392	0.358925
	H440	H	0.057826	0.124254	0.312046
	H441	H	0.057187	0.374464	0.348541
	H442	H	-0.004493	0.375324	0.374565
	H443	H	0.119451	0.124945	0.285994
	H444	H	0.034826	0.216886	0.301714
	H445	H	0.020691	0.216677	0.285198
	H446	H	0.018763	0.283536	0.368314
	H447	H	0.033634	0.282972	0.354548
	H448	H	0.020886	0.532783	0.284903
	H449	H	0.034971	0.532418	0.301412
	H450	H	0.033782	-0.032982	0.354830
	H451	H	0.018941	-0.032805	0.368646
	H452	H	0.080268	-0.032867	0.358783
	H453	H	0.094465	-0.033003	0.375144
	H454	H	0.081403	0.532773	0.306195
	H455	H	0.096217	0.533509	0.292355
	Al456	Al	0.054924	-0.500247	0.465764
	Al457	Al	0.054905	-0.250066	0.465804
	Al458	Al	-0.004970	-0.250022	0.392819
	Al459	Al	-0.005038	-0.500007	0.392801
	O460	O	0.064978	-0.459334	0.478787
	O461	O	0.054931	-0.374986	0.456997
	O462	O	0.054927	-0.124981	0.474533
	O463	O	0.108951	-0.459131	0.517063
	O464	O	0.044869	-0.459183	0.477932
	O465	O	0.002477	-0.459178	0.516158
	O466	O	0.044847	-0.291097	0.477965
	O467	O	0.045058	-0.208827	0.452435
	O468	O	0.004757	-0.208951	0.406380
	O469	O	0.064985	-0.291283	0.478785
	O470	O	0.065016	-0.209337	0.453685
	O471	O	0.107361	-0.209227	0.415327
	O472	O	0.002462	-0.291304	0.516050
	O473	O	0.045049	-0.040772	0.452468
	O474	O	0.004726	-0.040809	0.406436
	O475	O	0.107387	-0.041147	0.415352
	O476	O	0.065035	-0.041042	0.453668
	O477	O	0.108943	-0.291081	0.517125
	O478	O	-0.007564	-0.125384	0.519418
	O479	O	0.117386	-0.375288	0.411942
	C480	C	0.091181	-0.285961	0.502111
	C481	C	0.095678	-0.375072	0.505983
	C482	C	0.091155	-0.464204	0.502185
	C483	C	0.082401	-0.464177	0.494558
	C484	C	0.077934	-0.375141	0.490629
	C485	C	0.082425	-0.285758	0.494479
	C486	C	0.068628	-0.375336	0.482015
	C487	C	0.105194	-0.375045	0.514037
	C488	C	0.041298	-0.375035	0.481154
	C489	C	0.032258	-0.375410	0.489461
	C490	C	0.027948	-0.286435	0.493355
	C491	C	0.019483	-0.286776	0.500914
	C492	C	0.015160	-0.375567	0.504740
	C493	C	0.019465	-0.464360	0.500849
	C494	C	0.027922	-0.464185	0.493276
	C495	C	0.006056	-0.375101	0.512965
	C496	C	0.041629	-0.124950	0.448707
	C497	C	0.032937	-0.125030	0.438815
	C498	C	0.028837	-0.036140	0.434116
	C499	C	0.020832	-0.036107	0.424939
	C500	C	0.016725	-0.125032	0.420246
	C501	C	0.020878	-0.214049	0.424870
	C502	C	0.028884	-0.214097	0.434039
	C503	C	0.008126	-0.124813	0.410255
	C504	C	0.068622	-0.125046	0.450555
	C505	C	0.077716	-0.125169	0.442314
	C506	C	0.082049	-0.214221	0.438455
	C507	C	0.090468	-0.214264	0.430789
	C508	C	0.094785	-0.125031	0.426902
	C509	C	0.090447	-0.036114	0.430745
	C510	C	0.082026	-0.036139	0.438382
	C511	C	0.103827	-0.125243	0.418512
	H512	H	0.093733	-0.283171	0.427769
	H513	H	0.078804	-0.283284	0.441445
	H514	H	0.094594	-0.216924	0.504994
	H515	H	0.079065	-0.216489	0.491410
	H516	H	0.055042	-0.375182	0.447467
	H517	H	0.055008	-0.124931	0.484163
	H518	H	-0.007469	-0.125475	0.509913
	H519	H	0.117532	-0.375064	0.421504
	H520	H	0.032008	-0.282865	0.437589
	H521	H	0.017841	-0.282994	0.421138
	H522	H	0.016235	-0.217902	0.503924
	H523	H	0.031191	-0.217207	0.490385
	H524	H	0.017756	0.032705	0.421274
	H525	H	0.031905	0.032691	0.437727
	H526	H	0.031164	-0.532782	0.490286
	H527	H	0.016210	-0.533032	0.503815
	H528	H	0.079015	-0.533288	0.491528
	H529	H	0.094535	-0.533401	0.505135
	H530	H	0.078775	0.032971	0.441356
	H531	H	0.093692	0.032884	0.427719
	Al532	Al	0.054927	0.000114	0.465791
	Al533	Al	0.054991	0.249686	0.465760
	Al534	Al	-0.005045	0.250167	0.392774
	Al535	Al	-0.004979	0.000018	0.392826
	O536	O	0.065036	0.040578	0.478866
	O537	O	0.054994	0.124845	0.457025
	O538	O	0.054953	0.374504	0.474515
	O539	O	0.108922	0.040723	0.517285
	O540	O	0.044897	0.040799	0.477938
	O541	O	0.002482	0.040904	0.515978
	O542	O	0.044942	0.208762	0.477897
	O543	O	0.045109	0.290811	0.452385
	O544	O	0.004665	0.290761	0.406436
	O545	O	0.065087	0.208870	0.478754
	O546	O	0.065036	0.290765	0.453632
	O547	O	0.107418	0.290869	0.415406
	O548	O	0.002534	0.209041	0.516084
	O549	O	0.045053	0.458841	0.452442
	O550	O	0.004668	0.458918	0.406463
	O551	O	0.107399	0.458862	0.415374
	O552	O	0.065042	0.459141	0.453677
	O553	O	0.108935	0.208683	0.517240
	O554	O	-0.007485	0.374953	0.519411
	O555	O	0.117351	0.124772	0.411978
	C556	C	0.091281	0.213920	0.502111
	C557	C	0.095739	0.124845	0.505965
	C558	C	0.091220	0.035794	0.502182
	C559	C	0.082493	0.035682	0.494548
	C560	C	0.078067	0.124715	0.490556
	C561	C	0.082546	0.213688	0.494471
	C562	C	0.068718	0.124668	0.482084
	C563	C	0.105186	0.124557	0.514204
	C564	C	0.041342	0.124845	0.481089
	C565	C	0.032294	0.124949	0.489414
	C566	C	0.027996	0.213952	0.493334
	C567	C	0.019557	0.214065	0.500918
	C568	C	0.015200	0.125063	0.504721
	C569	C	0.019515	0.036049	0.500838
	C570	C	0.027959	0.035907	0.493259
	C571	C	0.006094	0.124920	0.512933
	C572	C	0.041675	0.374753	0.448621
	C573	C	0.032999	0.374742	0.438689
	C574	C	0.028840	0.463807	0.434071
	C575	C	0.020818	0.463756	0.424922
	C576	C	0.016714	0.374860	0.420199
	C577	C	0.020839	0.285904	0.424863
	C578	C	0.028872	0.285886	0.433992
	C579	C	0.008077	0.374870	0.410229
	C580	C	0.068628	0.375142	0.450506
	C581	C	0.077694	0.374845	0.442232
	C582	C	0.082016	0.285844	0.438313
	C583	C	0.090460	0.285886	0.430698
	C584	C	0.094795	0.375014	0.426862
	C585	C	0.090469	0.464039	0.430744
	C586	C	0.082021	0.464047	0.438346
	C587	C	0.103842	0.374884	0.418546
	H588	H	0.093701	0.216841	0.427675
	H589	H	0.078752	0.216715	0.441285
	H590	H	0.094610	0.282967	0.505172
	H591	H	0.079135	0.282785	0.491466
	H592	H	0.055087	0.124259	0.447460
	H593	H	0.055115	0.374151	0.484125
	H594	H	-0.007300	0.375432	0.509866
	H595	H	0.117247	0.124513	0.421466
	H596	H	0.031999	0.217129	0.437551
	H597	H	0.017738	0.217215	0.421271
	H598	H	0.016310	0.282990	0.503921
	H599	H	0.031287	0.283082	0.490382
	H600	H	0.017698	0.532529	0.421341
	H601	H	0.031949	0.532836	0.437642
	H602	H	0.031215	-0.032947	0.490272
	H603	H	0.016246	-0.032602	0.503791
	H604	H	0.079100	-0.033494	0.491655
	H605	H	0.094553	-0.033052	0.505319
	H606	H	0.078761	0.533204	0.441323
	H607	H	0.093748	0.533005	0.427738
	Al608	Al	0.057275	-0.500664	0.591033
	Al609	Al	0.057304	-0.249517	0.591091
	Al610	Al	-0.007629	-0.250311	0.528161
	Al611	Al	-0.007662	-0.500105	0.528186
	O612	O	0.069007	-0.459363	0.600886
	O613	O	0.056726	-0.375320	0.582190
	O614	O	0.058234	-0.124775	0.599855
	O615	O	0.118528	-0.459635	0.586817
	O616	O	0.047862	-0.459310	0.604204
	O617	O	0.004064	-0.458993	0.639749
	O618	O	0.047914	-0.291299	0.604213
	O619	O	0.046422	-0.209193	0.579667
	O620	O	0.002445	-0.209053	0.541240
	O621	O	0.069043	-0.290818	0.600999
	O622	O	0.066621	-0.209319	0.577367
	O623	O	0.110434	-0.209079	0.541762
	O624	O	0.003968	-0.290736	0.639657
	O625	O	0.046405	-0.041323	0.579623
	O626	O	0.002537	-0.041069	0.541174
	O627	O	0.110491	-0.041022	0.541866
	O628	O	0.066581	-0.041198	0.577281
	O629	O	0.118546	-0.291260	0.586753
	O630	O	-0.005864	-0.125130	0.644642
	O631	O	0.120783	-0.375292	0.537297
	C632	C	0.098615	-0.285508	0.591979
	C633	C	0.103592	-0.375379	0.590174
	C634	C	0.098618	-0.465204	0.592048
	C635	C	0.088924	-0.465082	0.595622
	C636	C	0.083933	-0.375311	0.597407
	C637	C	0.088919	-0.285503	0.595550
	C638	C	0.073259	-0.375171	0.600051
	C639	C	0.114264	-0.375437	0.587643
	C640	C	0.044156	-0.375141	0.607099
	C641	C	0.034714	-0.374909	0.614661
	C642	C	0.030175	-0.285256	0.618089
	C643	C	0.021377	-0.285244	0.624861
	C644	C	0.016836	-0.374727	0.628399
	C645	C	0.021346	-0.464218	0.624830
	C646	C	0.030144	-0.464449	0.618062
	C647	C	0.007600	-0.374596	0.636513
	C648	C	0.042668	-0.125409	0.576538
	C649	C	0.033201	-0.125289	0.568428
	C650	C	0.028706	-0.036332	0.564562
	C651	C	0.019968	-0.036298	0.556930
	C652	C	0.015486	-0.125234	0.553000
	C653	C	0.019914	-0.214154	0.557027
	C654	C	0.028660	-0.214204	0.564628
	C655	C	0.006149	-0.125397	0.544500
	C656	C	0.070191	-0.125219	0.574128
	C657	C	0.079399	-0.125046	0.566034
	C658	C	0.083917	-0.214519	0.562488
	C659	C	0.092726	-0.214470	0.555693
	C660	C	0.097286	-0.124951	0.552260
	C661	C	0.092717	-0.035415	0.555635
	C662	C	0.083895	-0.035377	0.562431
	C663	C	0.106721	-0.125023	0.544726
	H664	H	0.096097	-0.284416	0.553080
	H665	H	0.080561	-0.284349	0.565107
	H666	H	0.102373	-0.215397	0.590582
	H667	H	0.085179	-0.215498	0.596899
	H668	H	0.056143	-0.375379	0.572609
	H669	H	0.059640	-0.124621	0.609169
	H670	H	-0.006520	-0.125921	0.635003
	H671	H	0.122208	-0.375452	0.546689
	H672	H	0.032000	-0.283349	0.567675
	H673	H	0.016504	-0.283223	0.554127
	H674	H	0.018020	-0.215564	0.627482
	H675	H	0.033594	-0.215784	0.615484
	H676	H	0.016570	0.032675	0.553962
	H677	H	0.032127	0.032726	0.567488
	H678	H	0.033540	-0.534276	0.615387
	H679	H	0.017956	-0.534067	0.627460
	H680	H	0.085181	-0.535194	0.597030
	H681	H	0.102358	-0.535162	0.590684
	H682	H	0.080492	0.034462	0.564989
	H683	H	0.096083	0.034553	0.552965
	Al684	Al	0.057299	-0.000552	0.591015
	Al685	Al	0.057287	0.250316	0.591008
	Al686	Al	-0.007589	0.249985	0.528169
	Al687	Al	-0.007542	-0.000096	0.528151
	O688	O	0.069054	0.040774	0.600796
	O689	O	0.056731	0.125020	0.582116
	O690	O	0.058259	0.374702	0.599776
	O691	O	0.118564	0.040973	0.586778
	O692	O	0.047894	0.041122	0.604177
	O693	O	0.004040	0.040753	0.639769
	O694	O	0.047946	0.209151	0.604274
	O695	O	0.046346	0.291184	0.579729
	O696	O	0.002479	0.290870	0.541287
	O697	O	0.069038	0.209070	0.600868
	O698	O	0.066536	0.290819	0.577221
	O699	O	0.110446	0.291108	0.541816
	O700	O	0.004024	0.208965	0.639661
	O701	O	0.046395	0.459071	0.579586
	O702	O	0.002454	0.459056	0.541258
	O703	O	0.110418	0.459083	0.541705
	O704	O	0.066556	0.458603	0.577274
	O705	O	0.118613	0.209368	0.586827
	O706	O	-0.005867	0.374937	0.644558
	O707	O	0.120789	0.125084	0.537429
	C708	C	0.098684	0.215029	0.592107
	C709	C	0.103649	0.125125	0.590212
	C710	C	0.098630	0.035211	0.591884
	C711	C	0.088905	0.035158	0.595416
	C712	C	0.083967	0.125088	0.597350
	C713	C	0.088970	0.214956	0.595630
	C714	C	0.073290	0.125002	0.599974
	C715	C	0.114342	0.125296	0.587675
	C716	C	0.044190	0.125141	0.607144
	C717	C	0.034764	0.124837	0.614701
	C718	C	0.030218	0.214481	0.618160
	C719	C	0.021415	0.214355	0.624927
	C720	C	0.016895	0.124640	0.628446
	C721	C	0.021397	0.035032	0.624871
	C722	C	0.030197	0.035167	0.618093
	C723	C	0.007642	0.124625	0.636526
	C724	C	0.042633	0.375224	0.576518
	C725	C	0.033157	0.375284	0.568369
	C726	C	0.028720	0.464315	0.564403
	C727	C	0.019980	0.464084	0.556773
	C728	C	0.015494	0.375218	0.552909
	C729	C	0.019892	0.286401	0.556994
	C730	C	0.028622	0.286439	0.564647
	C731	C	0.006139	0.375081	0.544509
	C732	C	0.070163	0.374656	0.574091
	C733	C	0.079438	0.374739	0.566116
	C734	C	0.083974	0.285164	0.562553
	C735	C	0.092778	0.285357	0.555757
	C736	C	0.097301	0.374991	0.552275
	C737	C	0.092701	0.464448	0.555696
	C738	C	0.083897	0.464352	0.562472
	C739	C	0.106721	0.375220	0.544729
	H740	H	0.096215	0.215481	0.553159
	H741	H	0.080586	0.214994	0.565167
	H742	H	0.102438	0.285065	0.590758
	H743	H	0.085271	0.285041	0.597042
	H744	H	0.056155	0.124860	0.572494
	H745	H	0.059808	0.374537	0.609127
	H746	H	-0.006484	0.374932	0.634995
	H747	H	0.122082	0.125235	0.546873
	H748	H	0.031961	0.217620	0.567781
	H749	H	0.016479	0.217472	0.554148
	H750	H	0.018068	0.284362	0.627631
	H751	H	0.033629	0.284423	0.615567
	H752	H	0.016626	0.532922	0.553701
	H753	H	0.032134	0.533072	0.567289
	H754	H	0.033611	-0.034701	0.615457
	H755	H	0.018007	-0.034723	0.627484
	H756	H	0.085161	-0.034727	0.596669
	H757	H	0.102345	-0.034777	0.590403
	H758	H	0.080471	0.534244	0.564997
	H759	H	0.096066	0.534444	0.553010
	Al760	Al	0.067777	-0.499583	0.658929
	Al761	Al	0.067796	-0.250323	0.658959
	Al762	Al	-0.005238	-0.250602	0.653526
	Al763	Al	-0.005234	-0.499738	0.653545
	O764	O	0.078625	-0.458979	0.670403
	O765	O	0.066757	-0.374879	0.650207
	O766	O	0.068390	-0.124882	0.667893
	O767	O	0.122536	-0.459184	0.708890
	O768	O	0.058468	-0.459245	0.672612
	O769	O	0.014642	-0.459501	0.708252
	O770	O	0.058451	-0.291278	0.672668
	O771	O	0.056053	-0.209425	0.649212
	O772	O	0.006520	-0.209472	0.663295
	O773	O	0.078633	-0.291101	0.670426
	O774	O	0.077204	-0.209064	0.645865
	O775	O	0.121040	-0.209065	0.610260
	O776	O	0.014647	-0.291622	0.708122
	O777	O	0.056035	-0.041200	0.649170
	O778	O	0.006501	-0.041052	0.663285
	O779	O	0.121070	-0.041172	0.610319
	O780	O	0.077263	-0.040955	0.645910
	O781	O	0.122584	-0.291290	0.708748
	O782	O	0.004288	-0.125149	0.712468
	O783	O	0.130920	-0.375065	0.605429
	C784	C	0.105167	-0.286719	0.692932
	C785	C	0.109591	-0.375461	0.697004
	C786	C	0.105095	-0.464558	0.693137
	C787	C	0.096353	-0.464217	0.685523
	C788	C	0.091872	-0.375385	0.681616
	C789	C	0.096441	-0.286648	0.685326
	C790	C	0.082406	-0.375231	0.673533
	C791	C	0.118877	-0.375274	0.705547
	C792	C	0.054880	-0.375455	0.675813
	C793	C	0.045674	-0.375400	0.683922
	C794	C	0.041134	-0.285866	0.687422
	C795	C	0.032333	-0.286113	0.694210
	C796	C	0.027818	-0.375651	0.697754
	C797	C	0.032401	-0.465030	0.694348
	C798	C	0.041204	-0.464869	0.687545
	C799	C	0.018376	-0.375646	0.705281
	C800	C	0.051778	-0.125357	0.650054
	C801	C	0.041088	-0.125379	0.652575
	C802	C	0.036090	-0.035446	0.654316
	C803	C	0.026396	-0.035239	0.657900
	C804	C	0.021414	-0.125161	0.659763
	C805	C	0.026413	-0.215166	0.658039
	C806	C	0.036119	-0.215252	0.654476
	C807	C	0.010760	-0.125186	0.662400
	C808	C	0.080924	-0.125004	0.642954
	C809	C	0.090352	-0.125220	0.635384
	C810	C	0.094876	-0.214781	0.631934
	C811	C	0.103679	-0.214780	0.625125
	C812	C	0.108199	-0.125268	0.621555
	C813	C	0.103724	-0.035701	0.625182
	C814	C	0.094926	-0.035691	0.631995
	C815	C	0.117458	-0.125274	0.613508
	H816	H	0.107043	-0.284688	0.622515
	H817	H	0.091466	-0.284454	0.634497
	H818	H	0.108553	-0.217983	0.695834
	H819	H	0.093065	-0.217759	0.682309
	H820	H	0.065261	-0.375004	0.640803
	H821	H	0.069067	-0.124960	0.677475
	H822	H	0.002954	-0.125130	0.703004
	H823	H	0.131774	-0.374693	0.615015
	H824	H	0.039868	-0.285246	0.653153
	H825	H	0.022670	-0.285161	0.659496
	H826	H	0.028884	-0.216461	0.696787
	H827	H	0.044449	-0.215940	0.684749
	H828	H	0.022670	0.034932	0.659243
	H829	H	0.039843	0.034447	0.652875
	H830	H	0.044606	-0.534363	0.684952
	H831	H	0.029053	-0.534894	0.697018
	H832	H	0.092918	-0.533067	0.682614
	H833	H	0.108451	-0.533325	0.696263
	H834	H	0.091555	0.034189	0.634608
	H835	H	0.107135	0.034306	0.622594
	Al836	Al	0.067758	0.000474	0.658997
	Al837	Al	0.067749	0.249267	0.658911
	Al838	Al	-0.005254	0.249490	0.653464
	Al839	Al	-0.005256	0.000427	0.653527
	O840	O	0.078621	0.041013	0.670455
	O841	O	0.066812	0.124735	0.650189
	O842	O	0.068400	0.374794	0.667842
	O843	O	0.122562	0.040568	0.708759
	O844	O	0.058487	0.040890	0.672721
	O845	O	0.014573	0.040923	0.708065
	O846	O	0.058505	0.208959	0.672701
	O847	O	0.056018	0.290755	0.649194
	O848	O	0.006487	0.290627	0.663290
	O849	O	0.078700	0.208889	0.670286
	O850	O	0.077075	0.291156	0.645614
	O851	O	0.121023	0.290642	0.610309
	O852	O	0.014631	0.209122	0.708213
	O853	O	0.056048	0.459085	0.649089
	O854	O	0.006484	0.458702	0.663305
	O855	O	0.121061	0.458661	0.610384
	O856	O	0.077105	0.459227	0.645697
	O857	O	0.122518	0.208770	0.708846
	O858	O	0.004197	0.374945	0.712673
	O859	O	0.130971	0.124842	0.605404
	C860	C	0.105107	0.214015	0.693080
	C861	C	0.109573	0.124745	0.696983
	C862	C	0.105112	0.035607	0.693042
	C863	C	0.096377	0.035693	0.685410
	C864	C	0.091870	0.124837	0.681584
	C865	C	0.096366	0.214148	0.685434
	C866	C	0.082417	0.124987	0.673448
	C867	C	0.118857	0.124670	0.705527
	C868	C	0.054887	0.125091	0.675898
	C869	C	0.045638	0.125253	0.683977
	C870	C	0.041101	0.214621	0.687553
	C871	C	0.032316	0.214544	0.694309
	C872	C	0.027763	0.124871	0.697692
	C873	C	0.032324	0.035432	0.694265
	C874	C	0.041124	0.035589	0.687526
	C875	C	0.018338	0.125026	0.705255
	C876	C	0.051785	0.375060	0.649985
	C877	C	0.041099	0.375065	0.652564
	C878	C	0.036076	0.464963	0.654303
	C879	C	0.026382	0.464855	0.657866
	C880	C	0.021409	0.374842	0.659755
	C881	C	0.026422	0.284999	0.657972
	C882	C	0.036113	0.285081	0.654417
	C883	C	0.010747	0.374662	0.662421
	C884	C	0.080800	0.375140	0.642745
	C885	C	0.090233	0.375012	0.635211
	C886	C	0.094776	0.285219	0.631863
	C887	C	0.103634	0.285023	0.625146
	C888	C	0.108189	0.374560	0.621586
	C889	C	0.103700	0.464234	0.625136
	C890	C	0.094850	0.464481	0.631848
	C891	C	0.117423	0.374571	0.613570
	H892	H	0.107004	0.214871	0.622591
	H893	H	0.091374	0.215429	0.634507
	H894	H	0.108474	0.282958	0.696119
	H895	H	0.092995	0.283350	0.682459
	H896	H	0.065467	0.124633	0.640786
	H897	H	0.068838	0.374614	0.677421
	H898	H	0.002632	0.375118	0.703277
	H899	H	0.131629	0.124449	0.614975
	H900	H	0.039877	0.215212	0.653004
	H901	H	0.022711	0.214953	0.659412
	H902	H	0.028920	0.284287	0.696951
	H903	H	0.044487	0.284418	0.684913
	H904	H	0.022597	0.534421	0.659210
	H905	H	0.039811	0.534957	0.652859
	H906	H	0.044522	-0.034296	0.684906
	H907	H	0.028898	-0.034290	0.696929
	H908	H	0.093008	-0.033654	0.682416
	H909	H	0.108477	-0.033704	0.696033
	H910	H	0.091490	0.534626	0.634497
	H911	H	0.107077	0.534310	0.622584
	Al912	Al	0.070109	-0.500314	0.784222
	Al913	Al	0.070038	-0.250355	0.784318
	Al914	Al	0.005235	-0.249608	0.721253
	Al915	Al	0.005247	-0.500843	0.721449
	O916	O	0.079910	-0.459019	0.797648
	O917	O	0.070067	-0.375225	0.775548
	O918	O	0.070007	-0.125163	0.793072
	O919	O	0.120273	-0.459147	0.843633
	O920	O	0.059941	-0.459651	0.796281
	O921	O	0.017682	-0.459883	0.834689
	O922	O	0.059991	-0.291142	0.796451
	O923	O	0.059957	-0.208968	0.771265
	O924	O	0.016129	-0.208662	0.732649
	O925	O	0.079923	-0.290991	0.797684
	O926	O	0.080109	-0.209224	0.772133
	O927	O	0.122513	-0.208938	0.733936
	O928	O	0.017592	-0.291728	0.834603
	O929	O	0.059972	-0.040952	0.771284
	O930	O	0.016125	-0.040796	0.732616
	O931	O	0.122486	-0.040762	0.733956
	O932	O	0.080158	-0.041163	0.772135
	O933	O	0.120264	-0.290979	0.843589
	O934	O	0.007626	-0.125320	0.837979
	O935	O	0.132503	-0.374790	0.730634
	C936	C	0.104141	-0.286195	0.825195
	C937	C	0.108248	-0.375156	0.829866
	C938	C	0.104130	-0.464129	0.825210
	C939	C	0.096114	-0.464052	0.816045
	C940	C	0.092003	-0.375126	0.811355
	C941	C	0.096127	-0.286190	0.816018
	C942	C	0.083360	-0.375177	0.801411
	C943	C	0.116867	-0.374989	0.839816
	C944	C	0.056390	-0.375365	0.799469
	C945	C	0.047323	-0.375632	0.807719
	C946	C	0.042959	-0.286454	0.811580
	C947	C	0.034535	-0.286417	0.819199
	C948	C	0.030241	-0.375641	0.823109
	C949	C	0.034628	-0.464854	0.819312
	C950	C	0.043046	-0.464813	0.811688
	C951	C	0.021212	-0.375739	0.831489
	C952	C	0.056285	-0.124765	0.768028
	C953	C	0.046970	-0.124656	0.759486
	C954	C	0.042493	-0.035781	0.755571
	C955	C	0.033766	-0.035597	0.747885
	C956	C	0.029305	-0.124592	0.743939
	C957	C	0.033822	-0.213528	0.747735
	C958	C	0.042535	-0.213620	0.755439
	C959	C	0.019859	-0.124671	0.735756
	C960	C	0.083683	-0.125368	0.768961
	C961	C	0.092736	-0.125464	0.760643
	C962	C	0.097016	-0.214666	0.756698
	C963	C	0.105456	-0.214648	0.749117
	C964	C	0.109831	-0.125352	0.745325
	C965	C	0.105540	-0.036013	0.749274
	C966	C	0.097095	-0.036041	0.756851
	C967	C	0.118930	-0.124928	0.737090
	H968	H	0.108696	-0.283745	0.746114
	H969	H	0.093726	-0.283541	0.759664
	H970	H	0.107279	-0.217341	0.828751
	H971	H	0.093057	-0.217099	0.812415
	H972	H	0.069864	-0.375040	0.765926
	H973	H	0.069927	-0.125041	0.802686
	H974	H	0.007551	-0.125758	0.828391
	H975	H	0.132176	-0.374822	0.740143
	H976	H	0.045882	-0.282620	0.758443
	H977	H	0.030462	-0.282374	0.744681
	H978	H	0.031246	-0.217573	0.822236
	H979	H	0.046225	-0.217375	0.808590
	H980	H	0.030378	0.033559	0.744943
	H981	H	0.045841	0.033182	0.758659
	H982	H	0.046365	-0.533680	0.808727
	H983	H	0.031425	-0.533680	0.822400
	H984	H	0.092994	-0.532739	0.812452
	H985	H	0.107220	-0.533007	0.828769
	H986	H	0.093837	0.033067	0.759940
	H987	H	0.108875	0.033184	0.746360
	Al988	Al	0.070093	-0.000472	0.784268
	Al989	Al	0.070110	0.249850	0.784196
	Al990	Al	0.005228	0.250477	0.721379
	Al991	Al	0.005212	-0.000723	0.721287
	O992	O	0.079967	0.040870	0.797610
	O993	O	0.070154	0.124794	0.775475
	O994	O	0.070015	0.374931	0.792951
	O995	O	0.120284	0.041107	0.843584
	O996	O	0.060009	0.041177	0.796380
	O997	O	0.017615	0.041263	0.834600
	O998	O	0.059964	0.209329	0.796300
	O999	O	0.060066	0.290698	0.771135
	O1000	O	0.016123	0.290888	0.732830
	O1001	O	0.079930	0.208874	0.797628
	O1002	O	0.080164	0.290977	0.772096
	O1003	O	0.122517	0.290876	0.733981
	O1004	O	0.017598	0.209061	0.834639
	O1005	O	0.060078	0.459072	0.771123
	O1006	O	0.016109	0.459011	0.732878
	O1007	O	0.122547	0.459095	0.733960
	O1008	O	0.080162	0.459232	0.772071
	O1009	O	0.120284	0.209192	0.843612
	O1010	O	0.007552	0.374907	0.838086
	O1011	O	0.132554	0.124723	0.730632
	C1012	C	0.104093	0.213939	0.825240
	C1013	C	0.108268	0.124982	0.829833
	C1014	C	0.104177	0.036039	0.825096
	C1015	C	0.096173	0.035982	0.815929
	C1016	C	0.092021	0.124947	0.811291
	C1017	C	0.096104	0.213860	0.816058
	C1018	C	0.083384	0.124882	0.801368
	C1019	C	0.116886	0.125152	0.839780
	C1020	C	0.056389	0.125206	0.799486
	C1021	C	0.047334	0.125021	0.807777
	C1022	C	0.042985	0.214070	0.811572
	C1023	C	0.034528	0.214246	0.819177
	C1024	C	0.030221	0.125481	0.823121
	C1025	C	0.034553	0.036393	0.819269
	C1026	C	0.043001	0.036204	0.811672
	C1027	C	0.021175	0.125126	0.831455
	C1028	C	0.056425	0.374868	0.767882
	C1029	C	0.047066	0.374805	0.759398
	C1030	C	0.042598	0.463947	0.755518
	C1031	C	0.033843	0.464032	0.747895
	C1032	C	0.029372	0.374879	0.744018
	C1033	C	0.033853	0.285668	0.747857
	C1034	C	0.042601	0.285593	0.755484
	C1035	C	0.019862	0.374893	0.735912
	C1036	C	0.083706	0.375133	0.768895
	C1037	C	0.092764	0.375143	0.760609
	C1038	C	0.097024	0.285856	0.756635
	C1039	C	0.105483	0.285884	0.749051
	C1040	C	0.109858	0.375261	0.745318
	C1041	C	0.105536	0.464519	0.749181
	C1042	C	0.097085	0.464455	0.756757
	C1043	C	0.118950	0.375099	0.737090
	H1044	H	0.108704	0.217126	0.745949
	H1045	H	0.093743	0.216731	0.759556
	H1046	H	0.107144	0.282899	0.828875
	H1047	H	0.092976	0.282731	0.812484
	H1048	H	0.070123	0.124319	0.765856
	H1049	H	0.069858	0.374591	0.802546
	H1050	H	0.007460	0.374600	0.828586
	H1051	H	0.132523	0.124663	0.740219
	H1052	H	0.046001	0.216464	0.758461
	H1053	H	0.030476	0.216499	0.744915
	H1054	H	0.031244	0.283258	0.822100
	H1055	H	0.046221	0.283114	0.808540
	H1056	H	0.030454	0.533012	0.744949
	H1057	H	0.045918	0.532935	0.758543
	H1058	H	0.046217	-0.033012	0.808686
	H1059	H	0.031305	-0.032767	0.822259
	H1060	H	0.093101	-0.032852	0.812281
	H1061	H	0.107331	-0.032789	0.828656
	H1062	H	0.093811	0.533616	0.759735
	H1063	H	0.108791	0.533669	0.746207
	Al1064	Al	0.067451	-0.500169	0.919716
	Al1065	Al	0.067484	-0.250138	0.919796
	Al1066	Al	0.007580	-0.250252	0.846725
	Al1067	Al	0.007577	-0.500046	0.846805
	O1068	O	0.077099	-0.459354	0.933467
	O1069	O	0.067705	-0.375023	0.911068
	O1070	O	0.067311	-0.125433	0.928459
	O1071	O	0.117013	-0.459435	0.980315
	O1072	O	0.057313	-0.458947	0.931646
	O1073	O	0.015202	-0.459823	0.970454
	O1074	O	0.057240	-0.290890	0.931600
	O1075	O	0.057814	-0.209240	0.906070
	O1076	O	0.017455	-0.209903	0.860137
	O1077	O	0.077172	-0.291465	0.933444
	O1078	O	0.077679	-0.209120	0.907873
	O1079	O	0.119779	-0.209407	0.869077
	O1080	O	0.015156	-0.291951	0.970354
	O1081	O	0.057739	-0.041101	0.906191
	O1082	O	0.017460	-0.041910	0.860089
	O1083	O	0.119758	-0.041449	0.869079
	O1084	O	0.077747	-0.041120	0.907912
	O1085	O	0.116990	-0.291570	0.980308
	O1086	O	0.005175	-0.125206	0.973552
	O1087	O	0.129799	-0.375079	0.865908
	C1088	C	0.100989	-0.286792	0.961668
	C1089	C	0.105097	-0.375757	0.966319
	C1090	C	0.101064	-0.464534	0.961480
	C1091	C	0.093141	-0.464507	0.952118
	C1092	C	0.089060	-0.375600	0.947427
	C1093	C	0.093070	-0.286832	0.952307
	C1094	C	0.080522	-0.375497	0.937311
	C1095	C	0.113633	-0.375484	0.976417
	C1096	C	0.053708	-0.375201	0.934815
	C1097	C	0.044686	-0.375474	0.943167
	C1098	C	0.040384	-0.286545	0.947092
	C1099	C	0.032001	-0.286427	0.954833
	C1100	C	0.027746	-0.375527	0.958816
	C1101	C	0.032050	-0.464473	0.954898
	C1102	C	0.040433	-0.464511	0.947144
	C1103	C	0.018722	-0.375908	0.967193
	C1104	C	0.054365	-0.125013	0.902344
	C1105	C	0.045722	-0.125151	0.892388
	C1106	C	0.041604	-0.036424	0.887672
	C1107	C	0.033609	-0.036667	0.878492
	C1108	C	0.029499	-0.125899	0.873841
	C1109	C	0.033631	-0.214793	0.878513
	C1110	C	0.041627	-0.214355	0.887678
	C1111	C	0.020852	-0.125775	0.863904
	C1112	C	0.081266	-0.125336	0.904706
	C1113	C	0.090247	-0.125302	0.896255
	C1114	C	0.094489	-0.214235	0.892254
	C1115	C	0.102874	-0.214604	0.884530
	C1116	C	0.107217	-0.125809	0.880710
	C1117	C	0.102941	-0.036756	0.884686
	C1118	C	0.094573	-0.036473	0.892407
	C1119	C	0.116212	-0.125509	0.872252
	H1120	H	0.106067	-0.283340	0.881398
	H1121	H	0.091217	-0.282995	0.895187
	H1122	H	0.104018	-0.217759	0.965378
	H1123	H	0.089984	-0.217789	0.948763
	H1124	H	0.067988	-0.374972	0.901498
	H1125	H	0.067160	-0.125308	0.938110
	H1126	H	0.005200	-0.125406	0.963944
	H1127	H	0.129390	-0.374923	0.875454
	H1128	H	0.044742	-0.283258	0.891277
	H1129	H	0.030548	-0.283823	0.874925
	H1130	H	0.028725	-0.217371	0.957826
	H1131	H	0.043608	-0.217283	0.944043
	H1132	H	0.030509	0.032155	0.874887
	H1133	H	0.044719	0.032458	0.891238
	H1134	H	0.043677	-0.533723	0.944123
	H1135	H	0.028824	-0.533559	0.957922
	H1136	H	0.090109	-0.533476	0.948392
	H1137	H	0.104153	-0.533584	0.965049
	H1138	H	0.091371	0.032309	0.895509
	H1139	H	0.106196	0.032180	0.881676
	Al1140	Al	0.067513	-0.000315	0.919769
	Al1141	Al	0.067486	0.249786	0.919639
	Al1142	Al	0.007542	0.249879	0.846776
	Al1143	Al	0.007628	-0.000231	0.846767
	O1144	O	0.077108	0.041274	0.933454
	O1145	O	0.067660	0.124408	0.911005
	O1146	O	0.067253	0.374957	0.928399
	O1147	O	0.116959	0.040914	0.980339
	O1148	O	0.057368	0.040995	0.931708
	O1149	O	0.015213	0.040006	0.970346
	O1150	O	0.057249	0.209048	0.931499
	O1151	O	0.057833	0.290714	0.905923
	O1152	O	0.017394	0.290573	0.860152
	O1153	O	0.077183	0.209378	0.933376
	O1154	O	0.077647	0.291126	0.907800
	O1155	O	0.119798	0.290762	0.869110
	O1156	O	0.015183	0.208303	0.970363
	O1157	O	0.057759	0.458946	0.906066
	O1158	O	0.017422	0.458602	0.860130
	O1159	O	0.119748	0.459017	0.869096
	O1160	O	0.077686	0.459115	0.907914
	O1161	O	0.116967	0.209043	0.980388
	O1162	O	0.005157	0.374885	0.973587
	O1163	O	0.129817	0.124742	0.865931
	C1164	C	0.101015	0.213871	0.961652
	C1165	C	0.105105	0.124907	0.966344
	C1166	C	0.101082	0.035904	0.961491
	C1167	C	0.093152	0.036190	0.952124
	C1168	C	0.089070	0.125154	0.947385
	C1169	C	0.093100	0.214028	0.952276
	C1170	C	0.080530	0.125247	0.937272
	C1171	C	0.113601	0.124847	0.976483
	C1172	C	0.053761	0.124759	0.934809
	C1173	C	0.044713	0.124718	0.943145
	C1174	C	0.040456	0.213750	0.947165
	C1175	C	0.032056	0.213672	0.954856
	C1176	C	0.027743	0.124534	0.958727
	C1177	C	0.032034	0.035376	0.954798
	C1178	C	0.040438	0.035530	0.947111
	C1179	C	0.018749	0.124345	0.967143
	C1180	C	0.054375	0.374921	0.902218
	C1181	C	0.045731	0.374761	0.892299
	C1182	C	0.041615	0.463940	0.887615
	C1183	C	0.033588	0.463786	0.878464
	C1184	C	0.029493	0.374664	0.873773
	C1185	C	0.033585	0.285378	0.878485
	C1186	C	0.041611	0.285605	0.887632
	C1187	C	0.020811	0.374452	0.863914
	C1188	C	0.081217	0.375063	0.904665
	C1189	C	0.090237	0.374899	0.896275
	C1190	C	0.094509	0.285861	0.892287
	C1191	C	0.102893	0.286023	0.884546
	C1192	C	0.107208	0.375067	0.880674
	C1193	C	0.102945	0.464113	0.884679
	C1194	C	0.094568	0.463939	0.892435
	C1195	C	0.116211	0.374839	0.872254
	H1196	H	0.106091	0.217211	0.881398
	H1197	H	0.091256	0.216964	0.895270
	H1198	H	0.104043	0.282699	0.965382
	H1199	H	0.090020	0.282919	0.948701
	H1200	H	0.067715	0.124078	0.901447
	H1201	H	0.067177	0.374853	0.937985
	H1202	H	0.005191	0.375129	0.964020
	H1203	H	0.129797	0.124609	0.875505
	H1204	H	0.044712	0.216767	0.891283
	H1205	H	0.030442	0.216302	0.874988
	H1206	H	0.028846	0.282804	0.958002
	H1207	H	0.043763	0.282698	0.944208
	H1208	H	0.030454	0.532716	0.874928
	H1209	H	0.044697	0.533097	0.891222
	H1210	H	0.043695	-0.033221	0.944124
	H1211	H	0.028841	-0.033345	0.957904
	H1212	H	0.090116	-0.032751	0.948407
	H1213	H	0.104156	-0.033144	0.965098
	H1214	H	0.091334	0.532932	0.895520
	H1215	H	0.106186	0.533094	0.881631
	Al1216	Al	0.185735	-0.500007	0.068402
	Al1217	Al	0.185684	-0.249902	0.068386
	Al1218	Al	0.126639	-0.250374	-0.005969
	Al1219	Al	0.126650	-0.500174	-0.005911
	O1220	O	0.195362	-0.459031	0.082063
	O1221	O	0.185920	-0.374920	0.059710
	O1222	O	0.185561	-0.125031	0.077100
	O1223	O	0.235292	-0.459149	0.128869
	O1224	O	0.175504	-0.459026	0.080318
	O1225	O	0.133449	-0.459095	0.119119
	O1226	O	0.175507	-0.290862	0.080248
	O1227	O	0.176120	-0.208768	0.054574
	O1228	O	0.136237	-0.209057	0.007784
	O1229	O	0.195360	-0.290852	0.082091
	O1230	O	0.195903	-0.209317	0.056530
	O1231	O	0.238064	-0.208802	0.017896
	O1232	O	0.133418	-0.290980	0.119051
	O1233	O	0.176108	-0.040728	0.054594
	O1234	O	0.136238	-0.040862	0.007801
	O1235	O	0.237998	-0.040725	0.017740
	O1236	O	0.195891	-0.040944	0.056492
	O1237	O	0.235225	-0.291122	0.129006
	O1238	O	0.123384	-0.125041	0.122182
	O1239	O	0.248045	-0.375037	0.014639
	C1240	C	0.219220	-0.286084	0.110281
	C1241	C	0.223341	-0.375115	0.114964
	C1242	C	0.219310	-0.464445	0.110152
	C1243	C	0.211366	-0.464432	0.100827
	C1244	C	0.207260	-0.375325	0.096097
	C1245	C	0.211285	-0.286263	0.100955
	C1246	C	0.198754	-0.374998	0.085967
	C1247	C	0.231900	-0.375164	0.125062
	C1248	C	0.171964	-0.374992	0.083470
	C1249	C	0.162962	-0.375016	0.091896
	C1250	C	0.158657	-0.285841	0.095801
	C1251	C	0.150272	-0.285863	0.103529
	C1252	C	0.145997	-0.375045	0.107504
	C1253	C	0.150291	-0.464189	0.103581
	C1254	C	0.158670	-0.464237	0.095849
	C1255	C	0.136985	-0.375202	0.115879
	C1256	C	0.172740	-0.124708	0.050717
	C1257	C	0.164211	-0.124661	0.040621
	C1258	C	0.160150	-0.035614	0.035846
	C1259	C	0.152195	-0.035704	0.026558
	C1260	C	0.148112	-0.124895	0.021813
	C1261	C	0.152214	-0.213880	0.026512
	C1262	C	0.160158	-0.213701	0.035821
	C1263	C	0.139613	-0.124984	0.011674
	C1264	C	0.199465	-0.124983	0.053348
	C1265	C	0.208483	-0.125168	0.044942
	C1266	C	0.212852	-0.214253	0.041137
	C1267	C	0.221241	-0.214323	0.033420
	C1268	C	0.225481	-0.124991	0.029430
	C1269	C	0.221083	-0.035873	0.033181
	C1270	C	0.212698	-0.036052	0.040900
	C1271	C	0.234475	-0.124612	0.020991
	H1272	H	0.224525	-0.283110	0.030434
	H1273	H	0.209648	-0.283500	0.044269
	H1274	H	0.222259	-0.217195	0.113956
	H1275	H	0.208223	-0.217034	0.097393
	H1276	H	0.186217	-0.375342	0.050173
	H1277	H	0.185635	-0.125346	0.086695
	H1278	H	0.123689	-0.124878	0.112611
	H1279	H	0.247950	-0.375118	0.024220
	H1280	H	0.163242	-0.282584	0.039410
	H1281	H	0.149202	-0.283145	0.022807
	H1282	H	0.147013	-0.216706	0.106485
	H1283	H	0.161896	-0.216609	0.092666
	H1284	H	0.149158	0.033331	0.022894
	H1285	H	0.163241	0.033687	0.039441
	H1286	H	0.161909	-0.533258	0.092831
	H1287	H	0.147041	-0.533456	0.106615
	H1288	H	0.208328	-0.533814	0.097117
	H1289	H	0.222421	-0.533672	0.113700
	H1290	H	0.209401	0.032845	0.043797
	H1291	H	0.224221	0.033095	0.030028
	Al1292	Al	0.185687	-0.000022	0.068426
	Al1293	Al	0.185745	0.250198	0.068433
	Al1294	Al	0.126621	0.249862	-0.005884
	Al1295	Al	0.126605	0.000035	-0.005947
	O1296	O	0.195380	0.041025	0.082121
	O1297	O	0.185945	0.124931	0.059737
	O1298	O	0.185482	0.375183	0.077114
	O1299	O	0.235291	0.040782	0.128933
	O1300	O	0.175544	0.041059	0.080309
	O1301	O	0.133418	0.040684	0.119030
	O1302	O	0.175483	0.209240	0.080295
	O1303	O	0.176119	0.290965	0.054666
	O1304	O	0.136271	0.290555	0.007810
	O1305	O	0.195345	0.209050	0.082192
	O1306	O	0.195948	0.290911	0.056600
	O1307	O	0.238045	0.290614	0.017777
	O1308	O	0.133420	0.208841	0.119077
	O1309	O	0.176135	0.459095	0.054655
	O1310	O	0.136254	0.458556	0.007797
	O1311	O	0.237991	0.458890	0.017704
	O1312	O	0.195913	0.459061	0.056501
	O1313	O	0.235264	0.208770	0.128968
	O1314	O	0.123396	0.374864	0.122212
	O1315	O	0.248123	0.125251	0.014550
	C1316	C	0.219224	0.213823	0.110355
	C1317	C	0.223362	0.124779	0.114972
	C1318	C	0.219345	0.035769	0.110147
	C1319	C	0.211401	0.035799	0.100817
	C1320	C	0.207288	0.124920	0.096132
	C1321	C	0.211282	0.213902	0.100999
	C1322	C	0.198736	0.124879	0.086012
	C1323	C	0.231911	0.124913	0.125099
	C1324	C	0.171935	0.125085	0.083472
	C1325	C	0.162931	0.125088	0.091837
	C1326	C	0.158634	0.214266	0.095771
	C1327	C	0.150270	0.214238	0.103509
	C1328	C	0.145972	0.125157	0.107463
	C1329	C	0.150298	0.036134	0.103578
	C1330	C	0.158671	0.036102	0.095864
	C1331	C	0.136971	0.124887	0.115856
	C1332	C	0.172752	0.375036	0.050827
	C1333	C	0.164225	0.375036	0.040664
	C1334	C	0.160134	0.464085	0.035948
	C1335	C	0.152221	0.463870	0.026611
	C1336	C	0.148171	0.374888	0.021788
	C1337	C	0.152275	0.285875	0.026507
	C1338	C	0.160194	0.285928	0.035853
	C1339	C	0.139654	0.374509	0.011657
	C1340	C	0.199505	0.374936	0.053389
	C1341	C	0.208480	0.374913	0.044936
	C1342	C	0.212833	0.285857	0.041102
	C1343	C	0.221218	0.285735	0.033373
	C1344	C	0.225477	0.374703	0.029360
	C1345	C	0.221120	0.463835	0.033145
	C1346	C	0.212729	0.463974	0.040881
	C1347	C	0.234454	0.374747	0.020924
	H1348	H	0.224486	0.216568	0.030415
	H1349	H	0.209642	0.217078	0.044233
	H1350	H	0.222238	0.282937	0.114042
	H1351	H	0.208180	0.283237	0.097459
	H1352	H	0.186214	0.124908	0.050145
	H1353	H	0.185204	0.374369	0.086711
	H1354	H	0.123539	0.375312	0.112666
	H1355	H	0.248142	0.125123	0.024178
	H1356	H	0.163288	0.216694	0.039492
	H1357	H	0.149244	0.216696	0.022840
	H1358	H	0.147018	0.283144	0.106534
	H1359	H	0.161858	0.283234	0.092712
	H1360	H	0.149152	0.532974	0.022986
	H1361	H	0.163158	0.533458	0.039637
	H1362	H	0.161959	-0.032584	0.092880
	H1363	H	0.147076	-0.032827	0.106690
	H1364	H	0.208418	-0.033632	0.097146
	H1365	H	0.222447	-0.033436	0.113684
	H1366	H	0.209440	0.532989	0.043821
	H1367	H	0.224310	0.532476	0.029984
	Al1368	Al	0.182424	-0.500440	0.205151
	Al1369	Al	0.182419	-0.250026	0.205179
	Al1370	Al	0.123199	-0.250026	0.130874
	Al1371	Al	0.123235	-0.500116	0.130939
	O1372	O	0.192161	-0.459260	0.218771
	O1373	O	0.182657	-0.375192	0.196453
	O1374	O	0.182228	-0.125035	0.213814
	O1375	O	0.232542	-0.458690	0.264639
	O1376	O	0.172218	-0.459140	0.217024
	O1377	O	0.130139	-0.459038	0.255739
	O1378	O	0.172256	-0.291082	0.217053
	O1379	O	0.172795	-0.209143	0.191425
	O1380	O	0.132835	-0.209308	0.144603
	O1381	O	0.192099	-0.290885	0.218816
	O1382	O	0.192689	-0.208973	0.193327
	O1383	O	0.234744	-0.209008	0.154633
	O1384	O	0.130200	-0.290738	0.255914
	O1385	O	0.172754	-0.040926	0.191449
	O1386	O	0.132825	-0.041284	0.144640
	O1387	O	0.234758	-0.040785	0.154564
	O1388	O	0.192604	-0.040945	0.193125
	O1389	O	0.232518	-0.290749	0.264782
	O1390	O	0.120039	-0.125214	0.259011
	O1391	O	0.244720	-0.374990	0.151349
	C1392	C	0.216231	-0.285522	0.246500
	C1393	C	0.220408	-0.374577	0.251084
	C1394	C	0.216311	-0.463667	0.246360
	C1395	C	0.208306	-0.463976	0.237184
	C1396	C	0.204130	-0.374955	0.232587
	C1397	C	0.208216	-0.285724	0.237327
	C1398	C	0.195515	-0.374929	0.222615
	C1399	C	0.229093	-0.374683	0.260942
	C1400	C	0.168703	-0.375168	0.220247
	C1401	C	0.159696	-0.375066	0.228653
	C1402	C	0.155447	-0.285936	0.232648
	C1403	C	0.147069	-0.285884	0.240382
	C1404	C	0.142738	-0.374820	0.244284
	C1405	C	0.146981	-0.463978	0.240287
	C1406	C	0.155361	-0.464145	0.232537
	C1407	C	0.133734	-0.374838	0.252663
	C1408	C	0.169369	-0.125078	0.187586
	C1409	C	0.160836	-0.125058	0.177459
	C1410	C	0.156710	-0.036006	0.172777
	C1411	C	0.148768	-0.036094	0.163457
	C1412	C	0.144729	-0.125164	0.158643
	C1413	C	0.148850	-0.214177	0.163317
	C1414	C	0.156790	-0.214049	0.172637
	C1415	C	0.136186	-0.125367	0.148487
	C1416	C	0.196186	-0.124884	0.190010
	C1417	C	0.205211	-0.124816	0.181666
	C1418	C	0.209524	-0.213911	0.177779
	C1419	C	0.217911	-0.213923	0.170073
	C1420	C	0.222188	-0.124642	0.166131
	C1421	C	0.217896	-0.035594	0.170071
	C1422	C	0.209503	-0.035539	0.177759
	C1423	C	0.231196	-0.124951	0.157772
	H1424	H	0.221144	-0.282942	0.167067
	H1425	H	0.206265	-0.282973	0.180807
	H1426	H	0.219319	-0.216693	0.250092
	H1427	H	0.205079	-0.216715	0.233812
	H1428	H	0.182929	-0.375115	0.186982
	H1429	H	0.182021	-0.124840	0.223354
	H1430	H	0.120299	-0.125181	0.249473
	H1431	H	0.244729	-0.374648	0.160979
	H1432	H	0.159887	-0.283009	0.176213
	H1433	H	0.145815	-0.283154	0.159633
	H1434	H	0.143865	-0.217065	0.243465
	H1435	H	0.158730	-0.217066	0.229672
	H1436	H	0.145657	0.032828	0.159886
	H1437	H	0.159758	0.033167	0.176436
	H1438	H	0.158588	-0.533251	0.229442
	H1439	H	0.143711	-0.532751	0.243254
	H1440	H	0.205221	-0.533130	0.233561
	H1441	H	0.219471	-0.532755	0.249859
	H1442	H	0.206228	0.033648	0.180778
	H1443	H	0.221149	0.033638	0.167039
	Al1444	Al	0.182389	-0.000317	0.205053
	Al1445	Al	0.182417	0.249913	0.205168
	Al1446	Al	0.123226	0.249984	0.130931
	Al1447	Al	0.123203	-0.000061	0.130896
	O1448	O	0.192131	0.040649	0.218702
	O1449	O	0.182601	0.125151	0.196412
	O1450	O	0.182292	0.374788	0.213883
	O1451	O	0.232505	0.040806	0.264773
	O1452	O	0.172215	0.040866	0.216963
	O1453	O	0.130108	0.040795	0.255848
	O1454	O	0.172207	0.209063	0.217097
	O1455	O	0.172737	0.290947	0.191502
	O1456	O	0.132890	0.291039	0.144638
	O1457	O	0.192104	0.208719	0.218833
	O1458	O	0.192645	0.291034	0.193344
	O1459	O	0.234743	0.290854	0.154575
	O1460	O	0.130167	0.208923	0.255924
	O1461	O	0.172826	0.458958	0.191434
	O1462	O	0.132887	0.459152	0.144636
	O1463	O	0.234676	0.459204	0.154429
	O1464	O	0.192669	0.459037	0.193327
	O1465	O	0.232462	0.208963	0.264797
	O1466	O	0.120140	0.375034	0.259059
	O1467	O	0.244769	0.124929	0.151346
	C1468	C	0.216268	0.214178	0.246472
	C1469	C	0.220417	0.125054	0.251097
	C1470	C	0.216292	0.036046	0.246380
	C1471	C	0.208284	0.036108	0.237240
	C1472	C	0.204165	0.125030	0.232541
	C1473	C	0.208249	0.214153	0.237315
	C1474	C	0.195551	0.124571	0.222567
	C1475	C	0.229067	0.124841	0.260961
	C1476	C	0.168629	0.124809	0.220171
	C1477	C	0.159654	0.124732	0.228626
	C1478	C	0.155399	0.213784	0.232634
	C1479	C	0.147030	0.213829	0.240391
	C1480	C	0.142699	0.124715	0.244277
	C1481	C	0.147000	0.035637	0.240366
	C1482	C	0.155373	0.035632	0.232612
	C1483	C	0.133691	0.125004	0.252664
	C1484	C	0.169403	0.375234	0.187577
	C1485	C	0.160857	0.375265	0.177485
	C1486	C	0.156745	0.464234	0.172827
	C1487	C	0.148798	0.464349	0.163552
	C1488	C	0.144767	0.375304	0.158683
	C1489	C	0.148879	0.286379	0.163374
	C1490	C	0.156806	0.286384	0.172660
	C1491	C	0.136282	0.375264	0.148509
	C1492	C	0.196198	0.375084	0.190152
	C1493	C	0.205226	0.374765	0.181751
	C1494	C	0.209504	0.285719	0.177810
	C1495	C	0.217886	0.285872	0.170059
	C1496	C	0.222137	0.374984	0.166086
	C1497	C	0.217832	0.464076	0.169977
	C1498	C	0.209450	0.463871	0.177707
	C1499	C	0.231148	0.375171	0.157703
	H1500	H	0.221138	0.216816	0.167043
	H1501	H	0.206275	0.216713	0.180864
	H1502	H	0.219354	0.283339	0.250109
	H1503	H	0.205131	0.282971	0.233753
	H1504	H	0.182781	0.125127	0.186876
	H1505	H	0.182319	0.374923	0.223401
	H1506	H	0.120158	0.375118	0.249414
	H1507	H	0.244721	0.125300	0.160946
	H1508	H	0.159919	0.217344	0.176216
	H1509	H	0.145875	0.217365	0.159600
	H1510	H	0.143799	0.282807	0.243438
	H1511	H	0.158660	0.282857	0.229591
	H1512	H	0.145704	0.533408	0.159952
	H1513	H	0.159803	0.533120	0.176567
	H1514	H	0.158594	-0.033454	0.229542
	H1515	H	0.143754	-0.033375	0.243398
	H1516	H	0.205202	-0.032905	0.233591
	H1517	H	0.219418	-0.033011	0.249936
	H1518	H	0.206187	0.532875	0.180697
	H1519	H	0.220993	0.533313	0.166862
	Al1520	Al	0.179930	-0.499935	0.340695
	Al1521	Al	0.179871	-0.249901	0.340633
	Al1522	Al	0.119907	-0.249936	0.267755
	Al1523	Al	0.119983	-0.499891	0.267707
	O1524	O	0.190080	-0.459131	0.353580
	O1525	O	0.179918	-0.375103	0.331893
	O1526	O	0.179879	-0.124730	0.349404
	O1527	O	0.233887	-0.458395	0.392165
	O1528	O	0.169866	-0.458752	0.352828
	O1529	O	0.127527	-0.459264	0.391047
	O1530	O	0.169846	-0.290668	0.352764
	O1531	O	0.170013	-0.209150	0.327284
	O1532	O	0.129589	-0.208958	0.281390
	O1533	O	0.189945	-0.290741	0.353658
	O1534	O	0.190034	-0.209306	0.328598
	O1535	O	0.232409	-0.209360	0.290377
	O1536	O	0.127500	-0.291014	0.391062
	O1537	O	0.170024	-0.041329	0.327278
	O1538	O	0.129570	-0.040988	0.281354
	O1539	O	0.232319	-0.041307	0.290274
	O1540	O	0.189930	-0.041184	0.328442
	O1541	O	0.233889	-0.290587	0.392171
	O1542	O	0.117458	-0.125044	0.394444
	O1543	O	0.242419	-0.375163	0.286794
	C1544	C	0.216100	-0.285338	0.377175
	C1545	C	0.220649	-0.374204	0.380930
	C1546	C	0.216237	-0.462918	0.376900
	C1547	C	0.207513	-0.462863	0.369244
	C1548	C	0.202955	-0.374115	0.365482
	C1549	C	0.207367	-0.285245	0.369499
	C1550	C	0.193658	-0.374718	0.356893
	C1551	C	0.230124	-0.374375	0.389098
	C1552	C	0.166296	-0.374746	0.355998
	C1553	C	0.157269	-0.374732	0.364357
	C1554	C	0.152956	-0.285576	0.368276
	C1555	C	0.144518	-0.285673	0.375893
	C1556	C	0.140179	-0.374845	0.379725
	C1557	C	0.144508	-0.463885	0.375796
	C1558	C	0.152925	-0.463821	0.368178
	C1559	C	0.131110	-0.375069	0.387964
	C1560	C	0.166594	-0.125159	0.323465
	C1561	C	0.157943	-0.125096	0.313562
	C1562	C	0.153788	-0.036347	0.308927
	C1563	C	0.145754	-0.036396	0.299766
	C1564	C	0.141640	-0.125222	0.295057
	C1565	C	0.145751	-0.214105	0.299764
	C1566	C	0.153792	-0.213870	0.308907
	C1567	C	0.132997	-0.124893	0.285160
	C1568	C	0.193554	-0.125061	0.325364
	C1569	C	0.202622	-0.125369	0.317094
	C1570	C	0.206959	-0.214253	0.313323
	C1571	C	0.215413	-0.214302	0.305740
	C1572	C	0.219725	-0.125404	0.301803
	C1573	C	0.215352	-0.036431	0.305533
	C1574	C	0.206901	-0.036568	0.313102
	C1575	C	0.228812	-0.125577	0.293533
	H1576	H	0.218706	-0.283155	0.302844
	H1577	H	0.203719	-0.283069	0.316363
	H1578	H	0.219462	-0.216191	0.380246
	H1579	H	0.203943	-0.216249	0.366604
	H1580	H	0.179874	-0.375157	0.322259
	H1581	H	0.180091	-0.124464	0.358984
	H1582	H	0.117729	-0.125824	0.384910
	H1583	H	0.242457	-0.375881	0.296392
	H1584	H	0.156917	-0.282966	0.312461
	H1585	H	0.142624	-0.283042	0.296234
	H1586	H	0.141243	-0.216757	0.378917
	H1587	H	0.156217	-0.216696	0.365303
	H1588	H	0.142616	0.032453	0.296241
	H1589	H	0.156883	0.032674	0.312491
	H1590	H	0.156163	-0.532730	0.365131
	H1591	H	0.141266	-0.533066	0.378788
	H1592	H	0.204203	-0.532037	0.366131
	H1593	H	0.219644	-0.532194	0.379796
	H1594	H	0.203591	0.032432	0.315973
	H1595	H	0.218589	0.032634	0.302486
	Al1596	Al	0.179904	0.000017	0.340596
	Al1597	Al	0.179908	0.250086	0.340650
	Al1598	Al	0.119963	0.250229	0.267804
	Al1599	Al	0.119911	0.000177	0.267696
	O1600	O	0.189990	0.040801	0.353687
	O1601	O	0.179957	0.124966	0.331908
	O1602	O	0.179879	0.375187	0.349420
	O1603	O	0.233911	0.041615	0.392172
	O1604	O	0.169838	0.041146	0.352727
	O1605	O	0.127574	0.040806	0.391171
	O1606	O	0.169867	0.209252	0.352779
	O1607	O	0.170008	0.290867	0.327341
	O1608	O	0.129628	0.290847	0.281466
	O1609	O	0.189959	0.209137	0.353709
	O1610	O	0.190043	0.290787	0.328606
	O1611	O	0.232346	0.291359	0.290242
	O1612	O	0.127537	0.209088	0.391095
	O1613	O	0.170038	0.459006	0.327342
	O1614	O	0.129706	0.458872	0.281342
	O1615	O	0.232313	0.459434	0.290190
	O1616	O	0.189976	0.458838	0.328576
	O1617	O	0.233837	0.209572	0.392160
	O1618	O	0.117478	0.374935	0.394467
	O1619	O	0.242298	0.125010	0.286871
	C1620	C	0.216141	0.214201	0.377154
	C1621	C	0.220655	0.125219	0.380926
	C1622	C	0.216169	0.036262	0.377026
	C1623	C	0.207434	0.036171	0.369377
	C1624	C	0.202948	0.125283	0.365510
	C1625	C	0.207399	0.214276	0.369518
	C1626	C	0.193651	0.125140	0.356941
	C1627	C	0.230132	0.125297	0.389074
	C1628	C	0.166302	0.125286	0.355928
	C1629	C	0.157274	0.125159	0.364327
	C1630	C	0.152935	0.214192	0.368211
	C1631	C	0.144508	0.214091	0.375848
	C1632	C	0.140218	0.124974	0.379726
	C1633	C	0.144581	0.035825	0.375914
	C1634	C	0.153012	0.035848	0.368251
	C1635	C	0.131139	0.124760	0.387981
	C1636	C	0.166584	0.374965	0.323546
	C1637	C	0.157941	0.374905	0.313677
	C1638	C	0.153816	0.463804	0.309000
	C1639	C	0.145781	0.463862	0.299854
	C1640	C	0.141679	0.374729	0.295178
	C1641	C	0.145788	0.285771	0.299854
	C1642	C	0.153823	0.285931	0.309009
	C1643	C	0.133066	0.374825	0.285204
	C1644	C	0.193553	0.374903	0.325409
	C1645	C	0.202662	0.375297	0.317159
	C1646	C	0.207025	0.286236	0.313373
	C1647	C	0.215453	0.286358	0.305726
	C1648	C	0.219716	0.375370	0.301731
	C1649	C	0.215367	0.464436	0.305543
	C1650	C	0.206939	0.464238	0.313181
	C1651	C	0.228772	0.375398	0.293364
	H1652	H	0.218737	0.217584	0.302740
	H1653	H	0.203789	0.217323	0.316338
	H1654	H	0.219515	0.283188	0.380153
	H1655	H	0.204006	0.283155	0.366573
	H1656	H	0.180051	0.125110	0.322392
	H1657	H	0.180029	0.375267	0.358961
	H1658	H	0.117677	0.374141	0.384904
	H1659	H	0.242444	0.125059	0.296475
	H1660	H	0.156935	0.217074	0.312549
	H1661	H	0.142691	0.216709	0.296307
	H1662	H	0.141258	0.283408	0.378797
	H1663	H	0.156156	0.283347	0.365207
	H1664	H	0.142695	0.532763	0.296294
	H1665	H	0.156923	0.532899	0.312568
	H1666	H	0.156319	-0.033176	0.365326
	H1667	H	0.141349	-0.033166	0.378962
	H1668	H	0.204092	-0.032797	0.366338
	H1669	H	0.219590	-0.032653	0.379929
	H1670	H	0.203604	0.533264	0.316062
	H1671	H	0.218543	0.533310	0.302458
	Al1672	Al	0.182349	-0.500868	0.466153
	Al1673	Al	0.182347	-0.249405	0.466052
	Al1674	Al	0.117394	-0.250364	0.403186
	Al1675	Al	0.117428	-0.500269	0.403223
	O1676	O	0.194069	-0.459382	0.475897
	O1677	O	0.181744	-0.375337	0.457279
	O1678	O	0.183296	-0.125147	0.474862
	O1679	O	0.243595	-0.459007	0.461653
	O1680	O	0.172959	-0.459422	0.479336
	O1681	O	0.129079	-0.459192	0.514742
	O1682	O	0.172967	-0.291190	0.479271
	O1683	O	0.171407	-0.209046	0.454770
	O1684	O	0.127503	-0.209394	0.416256
	O1685	O	0.194098	-0.290826	0.475814
	O1686	O	0.191547	-0.209132	0.452238
	O1687	O	0.235431	-0.208971	0.416758
	O1688	O	0.129071	-0.290779	0.514705
	O1689	O	0.171424	-0.041387	0.454681
	O1690	O	0.127493	-0.041359	0.416260
	O1691	O	0.235361	-0.040914	0.416659
	O1692	O	0.191553	-0.040956	0.452258
	O1693	O	0.243587	-0.290736	0.461848
	O1694	O	0.119248	-0.125229	0.519748
	O1695	O	0.245769	-0.374969	0.412344
	C1696	C	0.223662	-0.285285	0.467022
	C1697	C	0.228660	-0.375197	0.465236
	C1698	C	0.223673	-0.465045	0.466996
	C1699	C	0.213978	-0.464999	0.470591
	C1700	C	0.209008	-0.375155	0.472477
	C1701	C	0.213976	-0.285330	0.470604
	C1702	C	0.198314	-0.375116	0.475018
	C1703	C	0.239341	-0.374940	0.462618
	C1704	C	0.169231	-0.375241	0.482197
	C1705	C	0.159810	-0.375148	0.489803
	C1706	C	0.155226	-0.285629	0.493141
	C1707	C	0.146441	-0.285856	0.499925
	C1708	C	0.141938	-0.375183	0.503496
	C1709	C	0.146457	-0.464690	0.500008
	C1710	C	0.155245	-0.464606	0.493228
	C1711	C	0.132687	-0.375120	0.511581
	C1712	C	0.167664	-0.125350	0.451566
	C1713	C	0.158206	-0.125339	0.443421
	C1714	C	0.153714	-0.036353	0.439546
	C1715	C	0.144967	-0.036516	0.431903
	C1716	C	0.140508	-0.125453	0.427943
	C1717	C	0.144982	-0.214406	0.431851
	C1718	C	0.153719	-0.214269	0.439511
	C1719	C	0.131169	-0.125345	0.419515
	C1720	C	0.195142	-0.124960	0.449073
	C1721	C	0.204384	-0.124692	0.440960
	C1722	C	0.208942	-0.214195	0.437548
	C1723	C	0.217742	-0.214389	0.430773
	C1724	C	0.222244	-0.124904	0.427206
	C1725	C	0.217638	-0.035174	0.430469
	C1726	C	0.208842	-0.034990	0.437281
	C1727	C	0.231683	-0.125012	0.419618
	H1728	H	0.221138	-0.284239	0.428243
	H1729	H	0.205604	-0.284001	0.440288
	H1730	H	0.227377	-0.215228	0.465582
	H1731	H	0.210208	-0.215512	0.471974
	H1732	H	0.181099	-0.375509	0.447697
	H1733	H	0.184615	-0.125261	0.484297
	H1734	H	0.118663	-0.124732	0.510182
	H1735	H	0.247215	-0.374958	0.421735
	H1736	H	0.157104	-0.283306	0.442486
	H1737	H	0.141632	-0.283579	0.428841
	H1738	H	0.143053	-0.216016	0.502536
	H1739	H	0.158615	-0.216125	0.490472
	H1740	H	0.141577	0.032505	0.428901
	H1741	H	0.157109	0.032591	0.442480
	H1742	H	0.158615	-0.534529	0.490602
	H1743	H	0.143071	-0.534439	0.502688
	H1744	H	0.210221	-0.535047	0.471907
	H1745	H	0.227408	-0.535009	0.465526
	H1746	H	0.205451	0.034895	0.439787
	H1747	H	0.220996	0.034451	0.427676
	Al1748	Al	0.182315	-0.000716	0.466044
	Al1749	Al	0.182299	0.250718	0.466024
	Al1750	Al	0.117474	0.249606	0.403218
	Al1751	Al	0.117440	-0.000196	0.403207
	O1752	O	0.194011	0.040887	0.475831
	O1753	O	0.181718	0.124840	0.457130
	O1754	O	0.183283	0.374584	0.474894
	O1755	O	0.243574	0.040364	0.461795
	O1756	O	0.172925	0.041066	0.479208
	O1757	O	0.129097	0.040881	0.514924
	O1758	O	0.172898	0.209224	0.479177
	O1759	O	0.171387	0.291288	0.454796
	O1760	O	0.127529	0.291019	0.416212
	O1761	O	0.194040	0.209048	0.475754
	O1762	O	0.191575	0.290932	0.452227
	O1763	O	0.235400	0.291086	0.416708
	O1764	O	0.129069	0.208986	0.514819
	O1765	O	0.171426	0.459227	0.454760
	O1766	O	0.127550	0.459073	0.416215
	O1767	O	0.235403	0.459157	0.416740
	O1768	O	0.191604	0.458919	0.452369
	O1769	O	0.243547	0.208789	0.461883
	O1770	O	0.119143	0.374944	0.519701
	O1771	O	0.245735	0.125324	0.412309
	C1772	C	0.223645	0.214361	0.467060
	C1773	C	0.228627	0.124418	0.465248
	C1774	C	0.223616	0.034623	0.467026
	C1775	C	0.213912	0.034749	0.470562
	C1776	C	0.208938	0.124682	0.472373
	C1777	C	0.213950	0.214637	0.470595
	C1778	C	0.198273	0.124897	0.474967
	C1779	C	0.239322	0.124518	0.462714
	C1780	C	0.169207	0.125107	0.482146
	C1781	C	0.159784	0.124772	0.489760
	C1782	C	0.155179	0.214249	0.493075
	C1783	C	0.146386	0.214196	0.499865
	C1784	C	0.141932	0.124628	0.503615
	C1785	C	0.146492	0.035140	0.500178
	C1786	C	0.155288	0.035248	0.493392
	C1787	C	0.132679	0.124905	0.511667
	C1788	C	0.167638	0.375413	0.451700
	C1789	C	0.158194	0.375427	0.443506
	C1790	C	0.153682	0.464166	0.439657
	C1791	C	0.144951	0.463962	0.432002
	C1792	C	0.140511	0.374964	0.428021
	C1793	C	0.144994	0.286202	0.431961
	C1794	C	0.153731	0.286439	0.439628
	C1795	C	0.131179	0.375064	0.419513
	C1796	C	0.195184	0.374896	0.449125
	C1797	C	0.204415	0.375033	0.441022
	C1798	C	0.208910	0.285379	0.437452
	C1799	C	0.217723	0.285418	0.430668
	C1800	C	0.222277	0.375080	0.427235
	C1801	C	0.217720	0.464670	0.430616
	C1802	C	0.208915	0.464644	0.437414
	C1803	C	0.231679	0.375089	0.419634
	H1804	H	0.221109	0.215616	0.427984
	H1805	H	0.205537	0.215426	0.440051
	H1806	H	0.227383	0.284437	0.465604
	H1807	H	0.210199	0.284651	0.471914
	H1808	H	0.181195	0.125337	0.447531
	H1809	H	0.184611	0.374369	0.484298
	H1810	H	0.118422	0.374192	0.510127
	H1811	H	0.247202	0.125488	0.421701
	H1812	H	0.157094	0.217560	0.442667
	H1813	H	0.141609	0.216948	0.428996
	H1814	H	0.142959	0.283776	0.502418
	H1815	H	0.158524	0.284010	0.490311
	H1816	H	0.141516	0.532827	0.429089
	H1817	H	0.157002	0.533176	0.442685
	H1818	H	0.158725	-0.034346	0.490835
	H1819	H	0.143148	-0.034904	0.502883
	H1820	H	0.210140	-0.035399	0.471860
	H1821	H	0.227347	-0.035493	0.465545
	H1822	H	0.205508	0.534501	0.439982
	H1823	H	0.221062	0.534508	0.427921
	Al1824	Al	0.192798	-0.499370	0.534081
	Al1825	Al	0.192783	-0.250293	0.534002
	Al1826	Al	0.119815	-0.250986	0.528548
	Al1827	Al	0.119827	-0.499729	0.528490
	O1828	O	0.203671	-0.458402	0.545466
	O1829	O	0.191791	-0.374864	0.525262
	O1830	O	0.193413	-0.125001	0.542926
	O1831	O	0.247588	-0.458924	0.583863
	O1832	O	0.183568	-0.459138	0.547926
	O1833	O	0.139747	-0.459180	0.583447
	O1834	O	0.183483	-0.291091	0.547727
	O1835	O	0.181102	-0.209049	0.524152
	O1836	O	0.131560	-0.209958	0.538428
	O1837	O	0.203683	-0.290534	0.545421
	O1838	O	0.202206	-0.209515	0.520910
	O1839	O	0.246123	-0.208936	0.485532
	O1840	O	0.139654	-0.291221	0.583319
	O1841	O	0.181072	-0.040648	0.524252
	O1842	O	0.131569	-0.041437	0.538428
	O1843	O	0.246015	-0.040782	0.485368
	O1844	O	0.202211	-0.041265	0.520918
	O1845	O	0.247598	-0.290902	0.583897
	O1846	O	0.129250	-0.125045	0.587723
	O1847	O	0.255926	-0.375120	0.480473
	C1848	C	0.230165	-0.285549	0.568130
	C1849	C	0.234585	-0.374527	0.572122
	C1850	C	0.230094	-0.463410	0.568190
	C1851	C	0.221363	-0.463555	0.560523
	C1852	C	0.216907	-0.374442	0.556628
	C1853	C	0.221429	-0.285667	0.560480
	C1854	C	0.207422	-0.374690	0.548522
	C1855	C	0.243927	-0.374986	0.580611
	C1856	C	0.179954	-0.374967	0.551063
	C1857	C	0.170741	-0.374737	0.559195
	C1858	C	0.166205	-0.285330	0.562778
	C1859	C	0.157420	-0.285286	0.569580
	C1860	C	0.152879	-0.374933	0.573014
	C1861	C	0.157443	-0.464285	0.569542
	C1862	C	0.166232	-0.464335	0.562754
	C1863	C	0.143434	-0.375057	0.580493
	C1864	C	0.176825	-0.124984	0.525074
	C1865	C	0.166146	-0.125357	0.527646
	C1866	C	0.161141	-0.035480	0.529456
	C1867	C	0.151442	-0.035784	0.533065
	C1868	C	0.146481	-0.125644	0.534939
	C1869	C	0.151474	-0.215500	0.533115
	C1870	C	0.161175	-0.215297	0.529536
	C1871	C	0.135806	-0.125719	0.537568
	C1872	C	0.205923	-0.125319	0.518003
	C1873	C	0.215356	-0.125430	0.510457
	C1874	C	0.219891	-0.214867	0.506975
	C1875	C	0.228699	-0.214956	0.500220
	C1876	C	0.233213	-0.125332	0.496710
	C1877	C	0.228743	-0.035867	0.500386
	C1878	C	0.219946	-0.035850	0.507149
	C1879	C	0.242472	-0.124917	0.488637
	H1880	H	0.232055	-0.285015	0.497506
	H1881	H	0.216473	-0.284556	0.509526
	H1882	H	0.233580	-0.216699	0.571073
	H1883	H	0.218044	-0.216713	0.557459
	H1884	H	0.190334	-0.374946	0.515935
	H1885	H	0.194062	-0.124339	0.552566
	H1886	H	0.127684	-0.124838	0.578389
	H1887	H	0.256744	-0.375428	0.490042
	H1888	H	0.164938	-0.285414	0.528167
	H1889	H	0.147764	-0.285674	0.534507
	H1890	H	0.154002	-0.215587	0.572157
	H1891	H	0.169601	-0.215440	0.560152
	H1892	H	0.147671	0.034204	0.534384
	H1893	H	0.164838	0.034511	0.528006
	H1894	H	0.169635	-0.534150	0.560083
	H1895	H	0.153998	-0.534082	0.572122
	H1896	H	0.217970	-0.532612	0.557572
	H1897	H	0.233452	-0.532465	0.571212
	H1898	H	0.216591	0.033790	0.509836
	H1899	H	0.232162	0.034091	0.497805
	Al1900	Al	0.192802	0.000573	0.534074
	Al1901	Al	0.192789	0.249608	0.534058
	Al1902	Al	0.119841	0.249404	0.528606
	Al1903	Al	0.119850	0.000315	0.528678
	O1904	O	0.203703	0.040594	0.545430
	O1905	O	0.191866	0.125044	0.525287
	O1906	O	0.193439	0.374814	0.542928
	O1907	O	0.247589	0.040906	0.583915
	O1908	O	0.183586	0.041292	0.547895
	O1909	O	0.139654	0.040932	0.583254
	O1910	O	0.183513	0.209372	0.547814
	O1911	O	0.181096	0.290769	0.524185
	O1912	O	0.131576	0.290955	0.538385
	O1913	O	0.203693	0.208435	0.545512
	O1914	O	0.202196	0.290790	0.520869
	O1915	O	0.246118	0.290978	0.485480
	O1916	O	0.139775	0.208873	0.583466
	O1917	O	0.181071	0.459018	0.524303
	O1918	O	0.131571	0.459172	0.538262
	O1919	O	0.245954	0.458906	0.485174
	O1920	O	0.202192	0.458817	0.520959
	O1921	O	0.247644	0.208877	0.583806
	O1922	O	0.129368	0.374830	0.587791
	O1923	O	0.255958	0.124929	0.480488
	C1924	C	0.230148	0.213229	0.568120
	C1925	C	0.234612	0.124552	0.572112
	C1926	C	0.230153	0.035609	0.568168
	C1927	C	0.221408	0.035539	0.560574
	C1928	C	0.216903	0.124395	0.556697
	C1929	C	0.221408	0.213236	0.560531
	C1930	C	0.207443	0.124529	0.548559
	C1931	C	0.243950	0.124940	0.580608
	C1932	C	0.179944	0.125309	0.551024
	C1933	C	0.170712	0.125430	0.559103
	C1934	C	0.166238	0.214935	0.562794
	C1935	C	0.157448	0.214522	0.569608
	C1936	C	0.152835	0.124872	0.572864
	C1937	C	0.157343	0.035422	0.569272
	C1938	C	0.166145	0.035788	0.562492
	C1939	C	0.143436	0.124927	0.580465
	C1940	C	0.176823	0.374790	0.525084
	C1941	C	0.166161	0.374887	0.527722
	C1942	C	0.161159	0.464774	0.529479
	C1943	C	0.151467	0.464870	0.533047
	C1944	C	0.146493	0.374907	0.534919
	C1945	C	0.151489	0.285037	0.533120
	C1946	C	0.161185	0.284971	0.529535
	C1947	C	0.135823	0.375099	0.537474
	C1948	C	0.205909	0.374902	0.517976
	C1949	C	0.215335	0.374989	0.510423
	C1950	C	0.219904	0.285394	0.507012
	C1951	C	0.228701	0.285276	0.500235
	C1952	C	0.233218	0.374798	0.496608
	C1953	C	0.228752	0.464300	0.500299
	C1954	C	0.219953	0.464508	0.507068
	C1955	C	0.242439	0.374790	0.488546
	H1956	H	0.232086	0.215651	0.497560
	H1957	H	0.216504	0.215743	0.509634
	H1958	H	0.233528	0.282160	0.571108
	H1959	H	0.218038	0.282236	0.557496
	H1960	H	0.190487	0.124756	0.515867
	H1961	H	0.194039	0.375111	0.552533
	H1962	H	0.127987	0.374496	0.578403
	H1963	H	0.256762	0.124854	0.490105
	H1964	H	0.164932	0.214805	0.528188
	H1965	H	0.147739	0.215021	0.534597
	H1966	H	0.154089	0.284010	0.572360
	H1967	H	0.169616	0.284896	0.560209
	H1968	H	0.147742	0.534720	0.534459
	H1969	H	0.164915	0.534823	0.528071
	H1970	H	0.169484	-0.034060	0.559699
	H1971	H	0.153937	-0.034448	0.571759
	H1972	H	0.218039	-0.033210	0.557548
	H1973	H	0.233554	-0.033226	0.571168
	H1974	H	0.216562	0.533995	0.509795
	H1975	H	0.232142	0.533999	0.497730
	Al1976	Al	0.195224	-0.500158	0.659391
	Al1977	Al	0.195156	-0.250120	0.659384
	Al1978	Al	0.130268	-0.249893	0.596498
	Al1979	Al	0.130289	-0.500544	0.596609
	O1980	O	0.205099	-0.459077	0.672680
	O1981	O	0.195225	-0.375127	0.650621
	O1982	O	0.195036	-0.124941	0.668162
	O1983	O	0.245430	-0.458609	0.718708
	O1984	O	0.185055	-0.459269	0.671492
	O1985	O	0.142686	-0.459107	0.709635
	O1986	O	0.185083	-0.291316	0.671459
	O1987	O	0.185072	-0.209581	0.646342
	O1988	O	0.141151	-0.209063	0.607903
	O1989	O	0.204980	-0.290993	0.672812
	O1990	O	0.205212	-0.208787	0.647289
	O1991	O	0.247580	-0.208701	0.609143
	O1992	O	0.142666	-0.291334	0.709685
	O1993	O	0.185076	-0.041526	0.646319
	O1994	O	0.141151	-0.041463	0.607905
	O1995	O	0.247601	-0.040633	0.609071
	O1996	O	0.205093	-0.040737	0.647155
	O1997	O	0.245390	-0.290648	0.718829
	O1998	O	0.132638	-0.125235	0.713100
	O1999	O	0.257510	-0.375041	0.605678
	C2000	C	0.229174	-0.285562	0.700380
	C2001	C	0.233351	-0.374485	0.705011
	C2002	C	0.229303	-0.463657	0.700280
	C2003	C	0.221285	-0.463942	0.691085
	C2004	C	0.217107	-0.374852	0.686462
	C2005	C	0.221156	-0.285811	0.691192
	C2006	C	0.208474	-0.375064	0.676524
	C2007	C	0.241990	-0.374621	0.714952
	C2008	C	0.181468	-0.375208	0.674602
	C2009	C	0.172408	-0.374832	0.682879
	C2010	C	0.168094	-0.285918	0.686771
	C2011	C	0.159643	-0.285864	0.694352
	C2012	C	0.155296	-0.374776	0.698162
	C2013	C	0.159635	-0.463810	0.694343
	C2014	C	0.168075	-0.463807	0.686733
	C2015	C	0.146261	-0.375024	0.706499
	C2016	C	0.181400	-0.125637	0.643073
	C2017	C	0.172084	-0.125551	0.634579
	C2018	C	0.167613	-0.036778	0.630659
	C2019	C	0.158863	-0.036601	0.623037
	C2020	C	0.154357	-0.125325	0.619172
	C2021	C	0.158876	-0.214063	0.623001
	C2022	C	0.167623	-0.214267	0.630612
	C2023	C	0.144896	-0.125283	0.611040
	C2024	C	0.208714	-0.124804	0.644052
	C2025	C	0.217793	-0.124641	0.635761
	C2026	C	0.222119	-0.213684	0.631938
	C2027	C	0.230603	-0.213389	0.624391
	C2028	C	0.234931	-0.124312	0.620529
	C2029	C	0.230594	-0.035371	0.624364
	C2030	C	0.222118	-0.035682	0.631921
	C2031	C	0.244013	-0.124487	0.612251
	H2032	H	0.233853	-0.282458	0.621411
	H2033	H	0.218856	-0.282639	0.634866
	H2034	H	0.232242	-0.216266	0.704006
	H2035	H	0.218054	-0.216824	0.687590
	H2036	H	0.195104	-0.375193	0.641105
	H2037	H	0.194841	-0.125263	0.677786
	H2038	H	0.132463	-0.125296	0.703532
	H2039	H	0.257378	-0.375441	0.615181
	H2040	H	0.170994	-0.283437	0.633564
	H2041	H	0.155513	-0.283039	0.620009
	H2042	H	0.156422	-0.216801	0.697406
	H2043	H	0.171348	-0.216840	0.683826
	H2044	H	0.155469	0.032500	0.620097
	H2045	H	0.170984	0.032069	0.633673
	H2046	H	0.171331	-0.532741	0.683754
	H2047	H	0.156386	-0.532916	0.697343
	H2048	H	0.218262	-0.533277	0.687395
	H2049	H	0.232441	-0.532893	0.703792
	H2050	H	0.218831	0.033293	0.634867
	H2051	H	0.233837	0.033673	0.621390
	Al2052	Al	0.195100	-0.000162	0.659359
	Al2053	Al	0.195118	0.249519	0.659442
	Al2054	Al	0.130328	0.250344	0.596616
	Al2055	Al	0.130320	-0.000649	0.596534
	O2056	O	0.205016	0.040838	0.672652
	O2057	O	0.195134	0.124837	0.650644
	O2058	O	0.195077	0.374763	0.668149
	O2059	O	0.245367	0.040952	0.718721
	O2060	O	0.184973	0.040554	0.671487
	O2061	O	0.142656	0.040916	0.709749
	O2062	O	0.185064	0.208705	0.671570
	O2063	O	0.185112	0.290930	0.646271
	O2064	O	0.141169	0.291126	0.608066
	O2065	O	0.204959	0.208826	0.672849
	O2066	O	0.205219	0.290535	0.647384
	O2067	O	0.247577	0.291110	0.609010
	O2068	O	0.142690	0.208858	0.709777
	O2069	O	0.185162	0.459231	0.646277
	O2070	O	0.141145	0.458910	0.607992
	O2071	O	0.247518	0.459134	0.609001
	O2072	O	0.205245	0.458833	0.647242
	O2073	O	0.245328	0.209066	0.718684
	O2074	O	0.132671	0.374786	0.713115
	O2075	O	0.257589	0.124840	0.605661
	C2076	C	0.229119	0.213494	0.700414
	C2077	C	0.233339	0.124858	0.704899
	C2078	C	0.229261	0.035803	0.700166
	C2079	C	0.221230	0.035635	0.691017
	C2080	C	0.217064	0.124603	0.686425
	C2081	C	0.221086	0.213554	0.691263
	C2082	C	0.208412	0.124825	0.676517
	C2083	C	0.241941	0.124855	0.714902
	C2084	C	0.181425	0.124678	0.674627
	C2085	C	0.172350	0.124742	0.682882
	C2086	C	0.168008	0.213538	0.686711
	C2087	C	0.159570	0.213594	0.694322
	C2088	C	0.155254	0.124633	0.698206
	C2089	C	0.159591	0.035804	0.694365
	C2090	C	0.168030	0.035897	0.686772
	C2091	C	0.146226	0.124686	0.706607
	C2092	C	0.181486	0.375201	0.642982
	C2093	C	0.172144	0.375891	0.634503
	C2094	C	0.167684	0.464811	0.630573
	C2095	C	0.158915	0.464662	0.622991
	C2096	C	0.154402	0.375639	0.619189
	C2097	C	0.158918	0.286866	0.623001
	C2098	C	0.167676	0.286896	0.630595
	C2099	C	0.144897	0.375086	0.611090
	C2100	C	0.208777	0.374480	0.644129
	C2101	C	0.217838	0.374688	0.635795
	C2102	C	0.222174	0.285481	0.631946
	C2103	C	0.230607	0.285549	0.624311
	C2104	C	0.234897	0.374830	0.620398
	C2105	C	0.230550	0.463980	0.624210
	C2106	C	0.222106	0.463967	0.631813
	C2107	C	0.243962	0.374853	0.612142
	H2108	H	0.233894	0.216193	0.621361
	H2109	H	0.218935	0.216311	0.634959
	H2110	H	0.232133	0.282762	0.704149
	H2111	H	0.217912	0.282473	0.687819
	H2112	H	0.195109	0.125328	0.641116
	H2113	H	0.194866	0.374497	0.677675
	H2114	H	0.132799	0.374452	0.703494
	H2115	H	0.257460	0.124722	0.615236
	H2116	H	0.171077	0.218122	0.633538
	H2117	H	0.155560	0.217465	0.620033
	H2118	H	0.156305	0.282320	0.697367
	H2119	H	0.171262	0.282216	0.683696
	H2120	H	0.155535	0.533606	0.619947
	H2121	H	0.171082	0.533801	0.633472
	H2122	H	0.171301	-0.033050	0.683793
	H2123	H	0.156352	-0.032989	0.697389
	H2124	H	0.218173	-0.033476	0.687349
	H2125	H	0.232402	-0.033284	0.703694
	H2126	H	0.218829	0.533180	0.634736
	H2127	H	0.233784	0.533079	0.621145
	Al2128	Al	0.192557	-0.499904	0.794800
	Al2129	Al	0.192544	-0.250161	0.794762
	Al2130	Al	0.132638	-0.250155	0.721842
	Al2131	Al	0.132648	-0.499954	0.721833
	O2132	O	0.202191	-0.458807	0.808529
	O2133	O	0.192720	-0.375312	0.786045
	O2134	O	0.192319	-0.125063	0.803493
	O2135	O	0.242054	-0.458963	0.855370
	O2136	O	0.182338	-0.459106	0.806660
	O2137	O	0.140208	-0.459267	0.845322
	O2138	O	0.182318	-0.291087	0.806603
	O2139	O	0.182814	-0.209313	0.781141
	O2140	O	0.142483	-0.209532	0.735207
	O2141	O	0.202203	-0.290943	0.808478
	O2142	O	0.202716	-0.209435	0.782826
	O2143	O	0.244925	-0.209157	0.744361
	O2144	O	0.140180	-0.291149	0.845318
	O2145	O	0.182838	-0.041071	0.781101
	O2146	O	0.142440	-0.041375	0.735257
	O2147	O	0.244856	-0.040749	0.744193
	O2148	O	0.202756	-0.041073	0.782981
	O2149	O	0.241982	-0.290880	0.855473
	O2150	O	0.130188	-0.125085	0.848503
	O2151	O	0.254926	-0.375018	0.741129
	C2152	C	0.226066	-0.285885	0.836668
	C2153	C	0.230152	-0.375093	0.841416
	C2154	C	0.226090	-0.464225	0.836628
	C2155	C	0.218170	-0.464133	0.827284
	C2156	C	0.214123	-0.374895	0.822487
	C2157	C	0.218165	-0.285832	0.827316
	C2158	C	0.205562	-0.374985	0.812383
	C2159	C	0.238653	-0.375121	0.851540
	C2160	C	0.178766	-0.374910	0.809806
	C2161	C	0.169734	-0.374912	0.818142
	C2162	C	0.165501	-0.285619	0.822181
	C2163	C	0.157129	-0.285737	0.829920
	C2164	C	0.152779	-0.374808	0.833750
	C2165	C	0.157070	-0.464085	0.829822
	C2166	C	0.165446	-0.463996	0.822085
	C2167	C	0.143755	-0.375267	0.842133
	C2168	C	0.179433	-0.125275	0.777299
	C2169	C	0.170798	-0.125254	0.767386
	C2170	C	0.166672	-0.035893	0.762721
	C2171	C	0.158639	-0.036010	0.753553
	C2172	C	0.154524	-0.125254	0.748901
	C2173	C	0.158653	-0.214459	0.753519
	C2174	C	0.166681	-0.214297	0.762669
	C2175	C	0.145881	-0.125350	0.739001
	C2176	C	0.206291	-0.125071	0.779734
	C2177	C	0.215334	-0.125275	0.771395
	C2178	C	0.219627	-0.214454	0.767455
	C2179	C	0.228028	-0.214279	0.759755
	C2180	C	0.232312	-0.124891	0.755836
	C2181	C	0.228015	-0.035696	0.759759
	C2182	C	0.219621	-0.035870	0.767462
	C2183	C	0.241344	-0.125155	0.747446
	H2184	H	0.231292	-0.283170	0.756748
	H2185	H	0.216408	-0.283703	0.770494
	H2186	H	0.229115	-0.217095	0.840375
	H2187	H	0.215101	-0.216648	0.823732
	H2188	H	0.192828	-0.375999	0.776487
	H2189	H	0.192131	-0.125661	0.813063
	H2190	H	0.130478	-0.124285	0.838941
	H2191	H	0.254763	-0.374425	0.750647
	H2192	H	0.169798	-0.283253	0.766191
	H2193	H	0.155583	-0.283479	0.749894
	H2194	H	0.153920	-0.216715	0.833049
	H2195	H	0.168798	-0.216682	0.819288
	H2196	H	0.155517	0.032710	0.749988
	H2197	H	0.169767	0.033372	0.766287
	H2198	H	0.168696	-0.533180	0.819075
	H2199	H	0.153828	-0.532933	0.832866
	H2200	H	0.215092	-0.532962	0.823607
	H2201	H	0.229121	-0.533304	0.840279
	H2202	H	0.216366	0.033098	0.770424
	H2203	H	0.231245	0.033328	0.756744
	Al2204	Al	0.192503	0.000079	0.794759
	Al2205	Al	0.192531	0.250151	0.794793
	Al2206	Al	0.132627	0.249936	0.721873
	Al2207	Al	0.132596	-0.000415	0.721850
	O2208	O	0.202169	0.040545	0.808486
	O2209	O	0.192813	0.125179	0.786070
	O2210	O	0.192342	0.375187	0.803495
	O2211	O	0.242046	0.040386	0.855307
	O2212	O	0.182303	0.040817	0.806665
	O2213	O	0.140203	0.040579	0.845390
	O2214	O	0.182318	0.209127	0.806597
	O2215	O	0.182852	0.290775	0.781116
	O2216	O	0.142435	0.290959	0.735247
	O2217	O	0.202204	0.208613	0.808461
	O2218	O	0.202772	0.290902	0.782988
	O2219	O	0.244857	0.290789	0.744216
	O2220	O	0.140192	0.208817	0.845385
	O2221	O	0.182835	0.459062	0.781192
	O2222	O	0.142494	0.459099	0.735167
	O2223	O	0.244846	0.459067	0.744188
	O2224	O	0.202723	0.459101	0.782859
	O2225	O	0.242056	0.208776	0.855345
	O2226	O	0.130233	0.374764	0.848456
	O2227	O	0.254833	0.124845	0.741108
	C2228	C	0.226091	0.213716	0.836564
	C2229	C	0.230127	0.124610	0.841379
	C2230	C	0.226043	0.035425	0.836634
	C2231	C	0.218126	0.035255	0.827295
	C2232	C	0.214080	0.124433	0.822510
	C2233	C	0.218184	0.213557	0.827207
	C2234	C	0.205545	0.124669	0.812372
	C2235	C	0.238662	0.124646	0.851489
	C2236	C	0.178774	0.125018	0.809808
	C2237	C	0.169756	0.125174	0.818214
	C2238	C	0.165432	0.214245	0.822132
	C2239	C	0.157045	0.214073	0.829853
	C2240	C	0.152780	0.124877	0.833819
	C2241	C	0.157098	0.035918	0.829897
	C2242	C	0.165484	0.036007	0.822196
	C2243	C	0.143746	0.124640	0.842192
	C2244	C	0.179442	0.374879	0.777352
	C2245	C	0.170824	0.375141	0.767407
	C2246	C	0.166696	0.464183	0.762752
	C2247	C	0.158671	0.464067	0.753599
	C2248	C	0.154544	0.375000	0.748906
	C2249	C	0.158704	0.285890	0.753562
	C2250	C	0.166735	0.285935	0.762704
	C2251	C	0.145872	0.375041	0.739024
	C2252	C	0.206325	0.374965	0.779783
	C2253	C	0.215343	0.374711	0.771435
	C2254	C	0.219634	0.285788	0.767488
	C2255	C	0.228028	0.285694	0.759781
	C2256	C	0.232323	0.374719	0.755854
	C2257	C	0.227990	0.463640	0.759705
	C2258	C	0.219608	0.463489	0.767414
	C2259	C	0.241317	0.374748	0.747435
	H2260	H	0.231284	0.216707	0.756731
	H2261	H	0.216414	0.216952	0.770581
	H2262	H	0.229190	0.282924	0.840148
	H2263	H	0.215129	0.282622	0.823540
	H2264	H	0.193232	0.124558	0.776598
	H2265	H	0.192195	0.374735	0.813066
	H2266	H	0.130408	0.374896	0.838907
	H2267	H	0.254570	0.125256	0.750578
	H2268	H	0.169830	0.216896	0.766322
	H2269	H	0.155605	0.216836	0.749961
	H2270	H	0.153753	0.283084	0.832869
	H2271	H	0.168655	0.283265	0.819070
	H2272	H	0.155572	0.533364	0.750049
	H2273	H	0.169774	0.533209	0.766377
	H2274	H	0.168748	-0.032759	0.819165
	H2275	H	0.153869	-0.033022	0.832888
	H2276	H	0.215037	-0.033968	0.823667
	H2277	H	0.229112	-0.033632	0.840292
	H2278	H	0.216331	0.532394	0.770387
	H2279	H	0.231182	0.532394	0.756612
	Al2280	Al	0.189114	-0.500038	0.931558
	Al2281	Al	0.189129	-0.249925	0.931542
	Al2282	Al	0.129997	-0.250316	0.857180
	Al2283	Al	0.129975	-0.500297	0.857214
	O2284	O	0.198752	-0.459182	0.945263
	O2285	O	0.189428	-0.375101	0.922828
	O2286	O	0.188923	-0.124986	0.940243
	O2287	O	0.238597	-0.458950	0.992115
	O2288	O	0.178865	-0.459166	0.943296
	O2289	O	0.136901	-0.459059	0.982319
	O2290	O	0.178949	-0.291120	0.943417
	O2291	O	0.179467	-0.209224	0.917850
	O2292	O	0.139637	-0.208606	0.870925
	O2293	O	0.198773	-0.291169	0.945236
	O2294	O	0.199334	-0.209038	0.919681
	O2295	O	0.241478	-0.208857	0.881046
	O2296	O	0.136820	-0.291067	0.982185
	O2297	O	0.179526	-0.041251	0.917718
	O2298	O	0.139661	-0.040666	0.870884
	O2299	O	0.241480	-0.040876	0.880987
	O2300	O	0.199337	-0.041015	0.919671
	O2301	O	0.238557	-0.290790	0.992216
	O2302	O	0.126849	-0.125076	0.985354
	O2303	O	0.251436	-0.375064	0.877874
	C2304	C	0.222607	-0.285979	0.973425
	C2305	C	0.226702	-0.375047	0.978164
	C2306	C	0.222676	-0.464131	0.973309
	C2307	C	0.214775	-0.464174	0.963950
	C2308	C	0.210653	-0.375095	0.959255
	C2309	C	0.214706	-0.286020	0.964077
	C2310	C	0.202140	-0.375183	0.949096
	C2311	C	0.235225	-0.374760	0.988281
	C2312	C	0.175354	-0.375006	0.946543
	C2313	C	0.166345	-0.374842	0.954914
	C2314	C	0.162092	-0.285978	0.958998
	C2315	C	0.153715	-0.285911	0.966718
	C2316	C	0.149399	-0.374873	0.970589
	C2317	C	0.153669	-0.463772	0.966550
	C2318	C	0.162032	-0.463757	0.958796
	C2319	C	0.140396	-0.375058	0.979005
	C2320	C	0.176114	-0.125144	0.913923
	C2321	C	0.167598	-0.125297	0.903780
	C2322	C	0.163541	-0.036044	0.899016
	C2323	C	0.155637	-0.036062	0.889672
	C2324	C	0.151552	-0.124946	0.884883
	C2325	C	0.155588	-0.214224	0.889665
	C2326	C	0.163500	-0.214227	0.899022
	C2327	C	0.143025	-0.124665	0.874783
	C2328	C	0.202903	-0.124967	0.916508
	C2329	C	0.211887	-0.124992	0.908068
	C2330	C	0.216196	-0.213753	0.904176
	C2331	C	0.224592	-0.213732	0.896475
	C2332	C	0.228885	-0.124806	0.892569
	C2333	C	0.224570	-0.035997	0.896459
	C2334	C	0.216167	-0.035934	0.904179
	C2335	C	0.237909	-0.124856	0.884182
	H2336	H	0.227812	-0.282561	0.893459
	H2337	H	0.212984	-0.282660	0.907224
	H2338	H	0.225683	-0.217203	0.977084
	H2339	H	0.211640	-0.217159	0.960412
	H2340	H	0.189868	-0.374491	0.913266
	H2341	H	0.188790	-0.124636	0.949839
	H2342	H	0.127111	-0.124941	0.975779
	H2343	H	0.251132	-0.375098	0.887482
	H2344	H	0.166555	-0.283402	0.902714
	H2345	H	0.152493	-0.283429	0.886056
	H2346	H	0.150496	-0.217025	0.969807
	H2347	H	0.165385	-0.217340	0.956029
	H2348	H	0.152569	0.033051	0.886048
	H2349	H	0.166603	0.033329	0.902687
	H2350	H	0.165239	-0.532430	0.955701
	H2351	H	0.150387	-0.532418	0.969543
	H2352	H	0.211746	-0.532934	0.960198
	H2353	H	0.225808	-0.532777	0.976876
	H2354	H	0.212930	0.032968	0.907238
	H2355	H	0.227820	0.032868	0.893442
	Al2356	Al	0.189112	0.000125	0.931550
	Al2357	Al	0.189118	0.249866	0.931593
	Al2358	Al	0.129972	0.249792	0.857219
	Al2359	Al	0.129969	-0.000163	0.857241
	O2360	O	0.198778	0.040443	0.945227
	O2361	O	0.189325	0.125044	0.922908
	O2362	O	0.188927	0.375063	0.940269
	O2363	O	0.238664	0.040993	0.992084
	O2364	O	0.178845	0.040827	0.943326
	O2365	O	0.136835	0.041030	0.982182
	O2366	O	0.178964	0.208944	0.943500
	O2367	O	0.179457	0.290913	0.917831
	O2368	O	0.139671	0.291019	0.870840
	O2369	O	0.198756	0.208395	0.945314
	O2370	O	0.199371	0.290685	0.919817
	O2371	O	0.241499	0.290947	0.881027
	O2372	O	0.136813	0.209093	0.982244
	O2373	O	0.179499	0.459166	0.917807
	O2374	O	0.139610	0.459040	0.870976
	O2375	O	0.241438	0.459296	0.880938
	O2376	O	0.199326	0.458848	0.919693
	O2377	O	0.238646	0.208790	0.992113
	O2378	O	0.126790	0.374797	0.985398
	O2379	O	0.251486	0.125121	0.877708
	C2380	C	0.222602	0.214054	0.973418
	C2381	C	0.226752	0.125125	0.978093
	C2382	C	0.222689	0.036277	0.973321
	C2383	C	0.214768	0.036004	0.963978
	C2384	C	0.210652	0.124755	0.959264
	C2385	C	0.214680	0.213849	0.964080
	C2386	C	0.202146	0.124515	0.949136
	C2387	C	0.235254	0.124942	0.988231
	C2388	C	0.175350	0.125049	0.946611
	C2389	C	0.166351	0.125207	0.955014
	C2390	C	0.162108	0.214201	0.959023
	C2391	C	0.153715	0.214308	0.966745
	C2392	C	0.149376	0.125359	0.970596
	C2393	C	0.153660	0.036397	0.966646
	C2394	C	0.162051	0.036260	0.958907
	C2395	C	0.140354	0.125468	0.978979
	C2396	C	0.176104	0.375162	0.913942
	C2397	C	0.167584	0.375506	0.903823
	C2398	C	0.163512	0.464586	0.899049
	C2399	C	0.155595	0.464446	0.889691
	C2400	C	0.151533	0.375353	0.884926
	C2401	C	0.155649	0.286416	0.889616
	C2402	C	0.163557	0.286626	0.898984
	C2403	C	0.143018	0.374990	0.874793
	C2404	C	0.202904	0.374612	0.916597
	C2405	C	0.211884	0.374703	0.908108
	C2406	C	0.216212	0.285629	0.904218
	C2407	C	0.224604	0.285827	0.896492
	C2408	C	0.228884	0.374837	0.892545
	C2409	C	0.224542	0.463809	0.896430
	C2410	C	0.216156	0.463735	0.904155
	C2411	C	0.237902	0.375029	0.884142
	H2412	H	0.227856	0.216947	0.893462
	H2413	H	0.212996	0.216779	0.907315
	H2414	H	0.225592	0.283211	0.977189
	H2415	H	0.211570	0.282667	0.960462
	H2416	H	0.189528	0.125695	0.913353
	H2417	H	0.188763	0.375397	0.949876
	H2418	H	0.126885	0.374677	0.975819
	H2419	H	0.251334	0.125190	0.887283
	H2420	H	0.166645	0.217631	0.902582
	H2421	H	0.152623	0.217652	0.885885
	H2422	H	0.150515	0.283320	0.969848
	H2423	H	0.165363	0.283353	0.956118
	H2424	H	0.152531	0.533483	0.886032
	H2425	H	0.166593	0.533494	0.902706
	H2426	H	0.165279	-0.032632	0.955831
	H2427	H	0.150430	-0.032568	0.969624
	H2428	H	0.211708	-0.033036	0.960349
	H2429	H	0.225769	-0.032654	0.976957
	H2430	H	0.212938	0.532708	0.907259
	H2431	H	0.227750	0.532761	0.893365
	Al2432	Al	0.307432	-0.499783	0.080196
	Al2433	Al	0.307431	-0.249736	0.080190
	Al2434	Al	0.248183	-0.249787	0.005956
	Al2435	Al	0.248190	-0.499847	0.005876
	O2436	O	0.317137	-0.459196	0.093776
	O2437	O	0.307595	-0.374745	0.071490
	O2438	O	0.307210	-0.124773	0.088879
	O2439	O	0.357467	-0.458973	0.139797
	O2440	O	0.297214	-0.459219	0.092071
	O2441	O	0.255098	-0.459171	0.130722
	O2442	O	0.297223	-0.290885	0.092103
	O2443	O	0.297810	-0.208690	0.066421
	O2444	O	0.257835	-0.209028	0.019645
	O2445	O	0.317135	-0.291120	0.093826
	O2446	O	0.317654	-0.209091	0.068305
	O2447	O	0.359750	-0.208665	0.029541
	O2448	O	0.255088	-0.291079	0.130824
	O2449	O	0.297737	-0.040608	0.066438
	O2450	O	0.257868	-0.040701	0.019623
	O2451	O	0.359761	-0.040409	0.029627
	O2452	O	0.317588	-0.040838	0.068253
	O2453	O	0.357502	-0.290859	0.139716
	O2454	O	0.245094	-0.125089	0.133996
	O2455	O	0.369724	-0.374946	0.026389
	C2456	C	0.341308	-0.286157	0.121336
	C2457	C	0.345411	-0.375164	0.126051
	C2458	C	0.341303	-0.464293	0.121426
	C2459	C	0.333302	-0.464263	0.112215
	C2460	C	0.329193	-0.375230	0.107511
	C2461	C	0.333306	-0.286085	0.112133
	C2462	C	0.320530	-0.375351	0.097590
	C2463	C	0.354042	-0.374899	0.135996
	C2464	C	0.293669	-0.374916	0.095302
	C2465	C	0.284644	-0.374950	0.103666
	C2466	C	0.280376	-0.285694	0.107621
	C2467	C	0.271987	-0.285640	0.115348
	C2468	C	0.267643	-0.374773	0.119179
	C2469	C	0.271887	-0.464034	0.115196
	C2470	C	0.280293	-0.463882	0.107477
	C2471	C	0.258650	-0.374833	0.127611
	C2472	C	0.294399	-0.124878	0.062543
	C2473	C	0.285857	-0.125187	0.052450
	C2474	C	0.281785	-0.036173	0.047685
	C2475	C	0.273854	-0.035914	0.038362
	C2476	C	0.269783	-0.124895	0.033584
	C2477	C	0.273842	-0.213937	0.038367
	C2478	C	0.281777	-0.214170	0.047699
	C2479	C	0.261238	-0.124984	0.023512
	C2480	C	0.321172	-0.124739	0.065075
	C2481	C	0.330167	-0.124674	0.056631
	C2482	C	0.334463	-0.213685	0.052691
	C2483	C	0.342844	-0.213629	0.044996
	C2484	C	0.347160	-0.124661	0.041100
	C2485	C	0.342892	-0.035618	0.045068
	C2486	C	0.334502	-0.035681	0.052789
	C2487	C	0.356183	-0.124597	0.032738
	H2488	H	0.346110	-0.282875	0.042014
	H2489	H	0.331182	-0.282797	0.055671
	H2490	H	0.344421	-0.217054	0.124898
	H2491	H	0.330201	-0.216847	0.108564
	H2492	H	0.307827	-0.374497	0.061948
	H2493	H	0.306853	-0.123993	0.098469
	H2494	H	0.245249	-0.124873	0.124380
	H2495	H	0.369607	-0.374426	0.036004
	H2496	H	0.284816	-0.283172	0.051365
	H2497	H	0.270792	-0.283053	0.034722
	H2498	H	0.268800	-0.216613	0.118461
	H2499	H	0.283707	-0.216997	0.104759
	H2500	H	0.270808	0.033041	0.034702
	H2501	H	0.284845	0.032694	0.051349
	H2502	H	0.283502	-0.533045	0.104394
	H2503	H	0.268598	-0.533106	0.118140
	H2504	H	0.330175	-0.533129	0.108691
	H2505	H	0.344384	-0.533211	0.125007
	H2506	H	0.331250	0.033302	0.055833
	H2507	H	0.346188	0.033338	0.042127
	Al2508	Al	0.307397	0.000146	0.080129
	Al2509	Al	0.307437	0.250264	0.080197
	Al2510	Al	0.248243	0.250332	0.005877
	Al2511	Al	0.248213	0.000121	0.005869
	O2512	O	0.317029	0.041450	0.093879
	O2513	O	0.307595	0.125203	0.071420
	O2514	O	0.307176	0.375358	0.088890
	O2515	O	0.357498	0.041084	0.139671
	O2516	O	0.297202	0.040796	0.092021
	O2517	O	0.255090	0.040784	0.130733
	O2518	O	0.297285	0.208915	0.092168
	O2519	O	0.297709	0.290844	0.066553
	O2520	O	0.257847	0.291350	0.019609
	O2521	O	0.317123	0.209200	0.093817
	O2522	O	0.317572	0.291458	0.068226
	O2523	O	0.359730	0.291146	0.029567
	O2524	O	0.255133	0.209078	0.130832
	O2525	O	0.297789	0.458835	0.066394
	O2526	O	0.257877	0.459454	0.019595
	O2527	O	0.359729	0.459144	0.029595
	O2528	O	0.317613	0.459326	0.068290
	O2529	O	0.357488	0.209142	0.139722
	O2530	O	0.245128	0.374847	0.133911
	O2531	O	0.369811	0.125266	0.026417
	C2532	C	0.341361	0.214118	0.121276
	C2533	C	0.345438	0.125169	0.126027
	C2534	C	0.341246	0.036212	0.121483
	C2535	C	0.333203	0.036143	0.112343
	C2536	C	0.329135	0.125053	0.107563
	C2537	C	0.333305	0.214133	0.112153
	C2538	C	0.320512	0.125428	0.097621
	C2539	C	0.354089	0.125103	0.135878
	C2540	C	0.293668	0.124797	0.095258
	C2541	C	0.284626	0.124879	0.103621
	C2542	C	0.280408	0.214116	0.107678
	C2543	C	0.272011	0.214017	0.115368
	C2544	C	0.267639	0.124891	0.119207
	C2545	C	0.271890	0.035614	0.115192
	C2546	C	0.280284	0.035637	0.107506
	C2547	C	0.258651	0.124778	0.127589
	C2548	C	0.294381	0.374892	0.062582
	C2549	C	0.285848	0.374816	0.052473
	C2550	C	0.281833	0.463855	0.047657
	C2551	C	0.273899	0.464005	0.038298
	C2552	C	0.269777	0.375114	0.033584
	C2553	C	0.273830	0.285925	0.038350
	C2554	C	0.281753	0.285777	0.047699
	C2555	C	0.261230	0.375497	0.023482
	C2556	C	0.321156	0.375367	0.065086
	C2557	C	0.330179	0.375383	0.056690
	C2558	C	0.334444	0.286420	0.052710
	C2559	C	0.342832	0.286324	0.044984
	C2560	C	0.347169	0.375255	0.041161
	C2561	C	0.342899	0.464230	0.045098
	C2562	C	0.334507	0.464334	0.052804
	C2563	C	0.356163	0.375153	0.032759
	H2564	H	0.346043	0.217326	0.041873
	H2565	H	0.331197	0.217286	0.055696
	H2566	H	0.344512	0.283026	0.124731
	H2567	H	0.330252	0.283202	0.108506
	H2568	H	0.307768	0.125827	0.061882
	H2569	H	0.306791	0.375485	0.098398
	H2570	H	0.245560	0.374864	0.124391
	H2571	H	0.369492	0.125680	0.035984
	H2572	H	0.284784	0.216797	0.051369
	H2573	H	0.270794	0.216877	0.034612
	H2574	H	0.268800	0.283208	0.118541
	H2575	H	0.283686	0.283511	0.104723
	H2576	H	0.270889	0.533096	0.034606
	H2577	H	0.284917	0.532753	0.051272
	H2578	H	0.283495	-0.033551	0.104404
	H2579	H	0.268615	-0.033703	0.118162
	H2580	H	0.330070	-0.032882	0.108830
	H2581	H	0.344315	-0.032698	0.125120
	H2582	H	0.331299	0.533526	0.055854
	H2583	H	0.346133	0.533279	0.042108
	Al2584	Al	0.304817	-0.499718	0.215567
	Al2585	Al	0.304883	-0.249875	0.215572
	Al2586	Al	0.244907	-0.249878	0.142721
	Al2587	Al	0.244871	-0.499793	0.142559
	O2588	O	0.314977	-0.459514	0.228499
	O2589	O	0.304906	-0.374692	0.206786
	O2590	O	0.304875	-0.124724	0.224313
	O2591	O	0.358847	-0.459125	0.267183
	O2592	O	0.294767	-0.458833	0.227700
	O2593	O	0.252480	-0.458790	0.265934
	O2594	O	0.294853	-0.290896	0.227766
	O2595	O	0.294992	-0.208861	0.202282
	O2596	O	0.254587	-0.208939	0.156326
	O2597	O	0.314956	-0.291225	0.228581
	O2598	O	0.314976	-0.208705	0.203466
	O2599	O	0.357332	-0.208666	0.165213
	O2600	O	0.252474	-0.290622	0.265936
	O2601	O	0.294979	-0.040904	0.202180
	O2602	O	0.254647	-0.040805	0.156282
	O2603	O	0.357296	-0.040538	0.165119
	O2604	O	0.314945	-0.040609	0.203433
	O2605	O	0.358793	-0.291131	0.267115
	O2606	O	0.242376	-0.125107	0.269380
	O2607	O	0.367319	-0.374626	0.161792
	C2608	C	0.341169	-0.286105	0.251894
	C2609	C	0.345638	-0.375143	0.255883
	C2610	C	0.341174	-0.464131	0.251959
	C2611	C	0.332462	-0.464453	0.244243
	C2612	C	0.327952	-0.375422	0.240344
	C2613	C	0.332438	-0.286274	0.244218
	C2614	C	0.318651	-0.375317	0.231791
	C2615	C	0.355077	-0.375190	0.264047
	C2616	C	0.291221	-0.374754	0.230850
	C2617	C	0.282203	-0.374941	0.239201
	C2618	C	0.277913	-0.285925	0.243082
	C2619	C	0.269469	-0.285635	0.250678
	C2620	C	0.265100	-0.374521	0.254481
	C2621	C	0.269417	-0.463595	0.250662
	C2622	C	0.277851	-0.463922	0.243056
	C2623	C	0.256035	-0.374600	0.262805
	C2624	C	0.291565	-0.125104	0.198468
	C2625	C	0.282922	-0.125235	0.188557
	C2626	C	0.278840	-0.036517	0.183868
	C2627	C	0.270810	-0.036335	0.174705
	C2628	C	0.266674	-0.125218	0.170047
	C2629	C	0.270758	-0.214084	0.174737
	C2630	C	0.278794	-0.214224	0.183895
	C2631	C	0.258044	-0.124878	0.160102
	C2632	C	0.318526	-0.124514	0.200306
	C2633	C	0.327619	-0.124247	0.192049
	C2634	C	0.331929	-0.213446	0.188180
	C2635	C	0.340373	-0.213683	0.180564
	C2636	C	0.344688	-0.124491	0.176668
	C2637	C	0.340397	-0.035249	0.180598
	C2638	C	0.331950	-0.035086	0.188220
	C2639	C	0.353751	-0.124544	0.168323
	H2640	H	0.343657	-0.283022	0.177592
	H2641	H	0.328696	-0.282615	0.191142
	H2642	H	0.344573	-0.216767	0.254829
	H2643	H	0.329098	-0.217219	0.241121
	H2644	H	0.304945	-0.374459	0.197164
	H2645	H	0.304976	-0.125327	0.233861
	H2646	H	0.242568	-0.125213	0.259826
	H2647	H	0.367334	-0.374041	0.171355
	H2648	H	0.281860	-0.283165	0.187497
	H2649	H	0.267670	-0.283131	0.171178
	H2650	H	0.266250	-0.216721	0.253718
	H2651	H	0.281183	-0.217156	0.240076
	H2652	H	0.267750	0.032376	0.171109
	H2653	H	0.281955	0.032443	0.187451
	H2654	H	0.281068	-0.533009	0.240048
	H2655	H	0.266156	-0.532201	0.253733
	H2656	H	0.329143	-0.533400	0.241157
	H2657	H	0.344590	-0.533348	0.254919
	H2658	H	0.328684	0.033882	0.191174
	H2659	H	0.343647	0.034093	0.177672
	Al2660	Al	0.304835	0.000253	0.215586
	Al2661	Al	0.304795	0.250116	0.215612
	Al2662	Al	0.244884	0.250164	0.142664
	Al2663	Al	0.244923	0.000099	0.142632
	O2664	O	0.314887	0.041384	0.228674
	O2665	O	0.304809	0.125110	0.206836
	O2666	O	0.304821	0.375318	0.224347
	O2667	O	0.358817	0.041544	0.266937
	O2668	O	0.294709	0.040883	0.227616
	O2669	O	0.252443	0.041154	0.266004
	O2670	O	0.294733	0.208958	0.227684
	O2671	O	0.294923	0.291174	0.202216
	O2672	O	0.254588	0.291219	0.156267
	O2673	O	0.314847	0.209432	0.228661
	O2674	O	0.314887	0.291076	0.203517
	O2675	O	0.357293	0.291191	0.165210
	O2676	O	0.252440	0.209085	0.266055
	O2677	O	0.294993	0.459146	0.202143
	O2678	O	0.254604	0.459133	0.156178
	O2679	O	0.357274	0.459004	0.165244
	O2680	O	0.314885	0.459041	0.203450
	O2681	O	0.358834	0.209621	0.267025
	O2682	O	0.242416	0.374939	0.269339
	O2683	O	0.367359	0.125378	0.161789
	C2684	C	0.341139	0.214576	0.251869
	C2685	C	0.345588	0.125568	0.255791
	C2686	C	0.341076	0.036562	0.251976
	C2687	C	0.332311	0.036819	0.244360
	C2688	C	0.327871	0.125845	0.240409
	C2689	C	0.332371	0.214782	0.244252
	C2690	C	0.318530	0.125460	0.231949
	C2691	C	0.355055	0.125747	0.263960
	C2692	C	0.291169	0.124940	0.230859
	C2693	C	0.282179	0.125013	0.239299
	C2694	C	0.277882	0.214187	0.243178
	C2695	C	0.269462	0.214323	0.250829
	C2696	C	0.265115	0.125276	0.254661
	C2697	C	0.269399	0.036158	0.250768
	C2698	C	0.277807	0.036046	0.243116
	C2699	C	0.256047	0.125270	0.262943
	C2700	C	0.291513	0.375256	0.198409
	C2701	C	0.282865	0.375446	0.188555
	C2702	C	0.278750	0.464403	0.183905
	C2703	C	0.270726	0.464319	0.174744
	C2704	C	0.266623	0.375439	0.169995
	C2705	C	0.270718	0.286560	0.174687
	C2706	C	0.278744	0.286486	0.183864
	C2707	C	0.258011	0.375062	0.160043
	C2708	C	0.318473	0.374884	0.200330
	C2709	C	0.327558	0.374577	0.192093
	C2710	C	0.331862	0.285724	0.188163
	C2711	C	0.340331	0.285695	0.180590
	C2712	C	0.344659	0.374686	0.176745
	C2713	C	0.340370	0.463515	0.180720
	C2714	C	0.331910	0.463490	0.188277
	C2715	C	0.353707	0.374933	0.168407
	H2716	H	0.343603	0.216638	0.177601
	H2717	H	0.328587	0.216835	0.191111
	H2718	H	0.344511	0.283832	0.254866
	H2719	H	0.329033	0.283852	0.241245
	H2720	H	0.304706	0.125225	0.197271
	H2721	H	0.305124	0.375290	0.233907
	H2722	H	0.242491	0.375064	0.259720
	H2723	H	0.367462	0.125232	0.171370
	H2724	H	0.281839	0.217699	0.187467
	H2725	H	0.267633	0.217606	0.171095
	H2726	H	0.266215	0.283385	0.253857
	H2727	H	0.281139	0.283086	0.240214
	H2728	H	0.267629	0.533380	0.171163
	H2729	H	0.281807	0.533498	0.187501
	H2730	H	0.281024	-0.032950	0.240061
	H2731	H	0.266107	-0.033163	0.253694
	H2732	H	0.328928	-0.032006	0.241432
	H2733	H	0.344397	-0.032649	0.255015
	H2734	H	0.328689	0.532436	0.191288
	H2735	H	0.343638	0.532546	0.177775
	Al2736	Al	0.307283	-0.500325	0.340876
	Al2737	Al	0.307241	-0.249372	0.340926
	Al2738	Al	0.242390	-0.250240	0.278142
	Al2739	Al	0.242373	-0.499961	0.278027
	O2740	O	0.318962	-0.458872	0.350720
	O2741	O	0.306635	-0.374885	0.331988
	O2742	O	0.308233	-0.124938	0.349725
	O2743	O	0.368517	-0.459322	0.336563
	O2744	O	0.297809	-0.458903	0.354011
	O2745	O	0.254088	-0.459020	0.389866
	O2746	O	0.297854	-0.290945	0.354142
	O2747	O	0.296366	-0.208877	0.329567
	O2748	O	0.252447	-0.208871	0.291127
	O2749	O	0.318985	-0.290763	0.350663
	O2750	O	0.316555	-0.208777	0.327183
	O2751	O	0.360414	-0.208930	0.291717
	O2752	O	0.253960	-0.291127	0.389614
	O2753	O	0.296397	-0.040927	0.329543
	O2754	O	0.252475	-0.040788	0.291086
	O2755	O	0.360281	-0.040664	0.291471
	O2756	O	0.316542	-0.040823	0.327178
	O2757	O	0.368531	-0.291208	0.336499
	O2758	O	0.244221	-0.124954	0.394697
	O2759	O	0.370775	-0.374895	0.287235
	C2760	C	0.348646	-0.285180	0.341939
	C2761	C	0.353606	-0.375187	0.340069
	C2762	C	0.348578	-0.465001	0.341807
	C2763	C	0.338879	-0.465000	0.345363
	C2764	C	0.333916	-0.375066	0.347196
	C2765	C	0.338939	-0.285173	0.345489
	C2766	C	0.323247	-0.374823	0.349822
	C2767	C	0.364271	-0.375200	0.337404
	C2768	C	0.294104	-0.374941	0.357007
	C2769	C	0.284693	-0.375114	0.364554
	C2770	C	0.280160	-0.285628	0.368075
	C2771	C	0.271363	-0.285701	0.374867
	C2772	C	0.266824	-0.375080	0.378361
	C2773	C	0.271346	-0.464553	0.374760
	C2774	C	0.280129	-0.464439	0.367929
	C2775	C	0.257624	-0.375067	0.386546
	C2776	C	0.292642	-0.124979	0.326512
	C2777	C	0.283154	-0.124953	0.318383
	C2778	C	0.278715	-0.036179	0.314373
	C2779	C	0.269975	-0.036002	0.306724
	C2780	C	0.265441	-0.124762	0.302924
	C2781	C	0.269870	-0.213622	0.307008
	C2782	C	0.278606	-0.213738	0.314650
	C2783	C	0.256123	-0.124799	0.294382
	C2784	C	0.320169	-0.124760	0.323977
	C2785	C	0.329386	-0.124661	0.315921
	C2786	C	0.333874	-0.214207	0.312331
	C2787	C	0.342684	-0.214473	0.305505
	C2788	C	0.347240	-0.124724	0.302080
	C2789	C	0.342689	-0.034966	0.305514
	C2790	C	0.333887	-0.034921	0.312325
	C2791	C	0.356623	-0.124950	0.294513
	H2792	H	0.346073	-0.284227	0.302878
	H2793	H	0.330507	-0.284093	0.314952
	H2794	H	0.352400	-0.215310	0.340609
	H2795	H	0.335221	-0.215140	0.346942
	H2796	H	0.305947	-0.374676	0.322408
	H2797	H	0.309701	-0.125056	0.359076
	H2798	H	0.243581	-0.124820	0.385120
	H2799	H	0.372176	-0.374750	0.296674
	H2800	H	0.281944	-0.282675	0.317756
	H2801	H	0.266458	-0.282415	0.304112
	H2802	H	0.267964	-0.216135	0.377522
	H2803	H	0.283554	-0.215767	0.365482
	H2804	H	0.266647	0.032793	0.303603
	H2805	H	0.282143	0.032503	0.317288
	H2806	H	0.283498	-0.534021	0.365184
	H2807	H	0.267954	-0.534357	0.377318
	H2808	H	0.335137	-0.535032	0.346751
	H2809	H	0.352301	-0.534908	0.340358
	H2810	H	0.330501	0.035022	0.314927
	H2811	H	0.346086	0.034815	0.302886
	Al2812	Al	0.307257	-0.000310	0.340968
	Al2813	Al	0.307250	0.250443	0.340883
	Al2814	Al	0.242328	0.249794	0.278120
	Al2815	Al	0.242368	0.000102	0.278129
	O2816	O	0.318958	0.041554	0.350793
	O2817	O	0.306648	0.125181	0.332058
	O2818	O	0.308153	0.375183	0.349648
	O2819	O	0.368476	0.040049	0.336688
	O2820	O	0.297876	0.041307	0.354145
	O2821	O	0.254086	0.040937	0.389802
	O2822	O	0.297826	0.209336	0.354036
	O2823	O	0.296358	0.291050	0.329491
	O2824	O	0.252384	0.290811	0.291205
	O2825	O	0.319001	0.209807	0.350692
	O2826	O	0.316458	0.291279	0.327031
	O2827	O	0.360279	0.290811	0.291544
	O2828	O	0.253987	0.208999	0.389608
	O2829	O	0.296384	0.459066	0.329436
	O2830	O	0.252475	0.459144	0.291039
	O2831	O	0.360372	0.458762	0.291625
	O2832	O	0.316524	0.459296	0.327123
	O2833	O	0.368507	0.208393	0.336471
	O2834	O	0.244171	0.375375	0.394592
	O2835	O	0.370715	0.125024	0.287099
	C2836	C	0.348622	0.214546	0.341917
	C2837	C	0.353581	0.124430	0.340094
	C2838	C	0.348558	0.034563	0.341902
	C2839	C	0.338862	0.034810	0.345471
	C2840	C	0.333902	0.124968	0.347298
	C2841	C	0.338915	0.214782	0.345486
	C2842	C	0.323229	0.125563	0.349894
	C2843	C	0.364258	0.124302	0.337488
	C2844	C	0.294136	0.125349	0.357044
	C2845	C	0.284723	0.125579	0.364657
	C2846	C	0.280157	0.215146	0.368073
	C2847	C	0.271351	0.214848	0.374886
	C2848	C	0.266876	0.125194	0.378437
	C2849	C	0.271405	0.035791	0.374894
	C2850	C	0.280215	0.035991	0.368093
	C2851	C	0.257647	0.124936	0.386499
	C2852	C	0.292631	0.375057	0.326426
	C2853	C	0.283106	0.374914	0.318353
	C2854	C	0.278576	0.463706	0.314494
	C2855	C	0.269845	0.463568	0.306866
	C2856	C	0.265368	0.374654	0.302984
	C2857	C	0.269854	0.285643	0.306888
	C2858	C	0.278600	0.285890	0.314515
	C2859	C	0.256087	0.374871	0.294405
	C2860	C	0.320117	0.374956	0.323962
	C2861	C	0.329342	0.375283	0.315913
	C2862	C	0.333819	0.285657	0.312291
	C2863	C	0.342625	0.285419	0.305502
	C2864	C	0.347243	0.374953	0.302176
	C2865	C	0.342708	0.464557	0.305606
	C2866	C	0.333889	0.464785	0.312365
	C2867	C	0.356638	0.374921	0.294551
	H2868	H	0.345960	0.215553	0.302766
	H2869	H	0.330406	0.215743	0.314842
	H2870	H	0.352378	0.284427	0.340516
	H2871	H	0.335187	0.284762	0.346932
	H2872	H	0.305920	0.125537	0.322455
	H2873	H	0.309352	0.375016	0.359074
	H2874	H	0.243616	0.375832	0.384986
	H2875	H	0.372175	0.125083	0.296576
	H2876	H	0.282045	0.217169	0.317481
	H2877	H	0.266463	0.216734	0.303891
	H2878	H	0.267983	0.284967	0.377495
	H2879	H	0.283518	0.284869	0.365412
	H2880	H	0.266443	0.532362	0.303879
	H2881	H	0.281968	0.532497	0.317416
	H2882	H	0.283585	-0.033948	0.365464
	H2883	H	0.268041	-0.034146	0.377508
	H2884	H	0.335105	-0.035314	0.346875
	H2885	H	0.352289	-0.035398	0.340453
	H2886	H	0.330503	0.534917	0.314951
	H2887	H	0.346121	0.534353	0.302966
	Al2888	Al	0.317803	-0.499950	0.409169
	Al2889	Al	0.317796	-0.250787	0.409073
	Al2890	Al	0.244754	-0.250509	0.403513
	Al2891	Al	0.244774	-0.499381	0.403572
	O2892	O	0.328683	-0.459145	0.420562
	O2893	O	0.316793	-0.375584	0.400356
	O2894	O	0.318391	-0.125374	0.417962
	O2895	O	0.372572	-0.458886	0.458721
	O2896	O	0.308637	-0.458877	0.423038
	O2897	O	0.264662	-0.458977	0.458408
	O2898	O	0.308421	-0.290976	0.422690
	O2899	O	0.306059	-0.209139	0.399282
	O2900	O	0.256497	-0.209123	0.413284
	O2901	O	0.328670	-0.290950	0.420501
	O2902	O	0.327169	-0.209419	0.395899
	O2903	O	0.370949	-0.208901	0.360270
	O2904	O	0.264684	-0.290955	0.458417
	O2905	O	0.306052	-0.041052	0.399316
	O2906	O	0.256518	-0.040880	0.413424
	O2907	O	0.370971	-0.040865	0.360342
	O2908	O	0.327155	-0.041600	0.395897
	O2909	O	0.372538	-0.290684	0.458842
	O2910	O	0.254338	-0.125236	0.462830
	O2911	O	0.380890	-0.375023	0.355255
	C2912	C	0.355116	-0.285469	0.443149
	C2913	C	0.359609	-0.374589	0.446971
	C2914	C	0.355177	-0.463760	0.443007
	C2915	C	0.346419	-0.464033	0.435424
	C2916	C	0.341903	-0.374922	0.431657
	C2917	C	0.346352	-0.285788	0.435539
	C2918	C	0.332427	-0.375068	0.423590
	C2919	C	0.368912	-0.374775	0.455506
	C2920	C	0.304964	-0.375019	0.426103
	C2921	C	0.295704	-0.375418	0.434194
	C2922	C	0.291214	-0.285807	0.437780
	C2923	C	0.282424	-0.285609	0.444575
	C2924	C	0.277855	-0.375123	0.448008
	C2925	C	0.282371	-0.464733	0.444507
	C2926	C	0.291164	-0.464955	0.437723
	C2927	C	0.268379	-0.374986	0.455491
	C2928	C	0.301805	-0.125088	0.400146
	C2929	C	0.291132	-0.125212	0.402705
	C2930	C	0.286127	-0.035485	0.404406
	C2931	C	0.276429	-0.035398	0.407955
	C2932	C	0.271443	-0.125061	0.409847
	C2933	C	0.276442	-0.214746	0.408074
	C2934	C	0.286148	-0.214969	0.404538
	C2935	C	0.260760	-0.125002	0.412458
	C2936	C	0.330861	-0.125351	0.392963
	C2937	C	0.340263	-0.125186	0.385344
	C2938	C	0.344816	-0.214661	0.381921
	C2939	C	0.353642	-0.214595	0.375139
	C2940	C	0.358147	-0.125014	0.371574
	C2941	C	0.353656	-0.035596	0.375208
	C2942	C	0.344829	-0.035556	0.381978
	C2943	C	0.367377	-0.125100	0.363491
	H2944	H	0.357009	-0.284751	0.372530
	H2945	H	0.341421	-0.284286	0.384546
	H2946	H	0.358447	-0.216461	0.446191
	H2947	H	0.342943	-0.216867	0.432640
	H2948	H	0.315279	-0.375589	0.390962
	H2949	H	0.319108	-0.124829	0.427574
	H2950	H	0.252827	-0.125158	0.453469
	H2951	H	0.381637	-0.374929	0.364804
	H2952	H	0.289890	-0.284875	0.403216
	H2953	H	0.272691	-0.284735	0.409542
	H2954	H	0.279031	-0.215815	0.447153
	H2955	H	0.294608	-0.216136	0.435146
	H2956	H	0.272722	0.034908	0.409259
	H2957	H	0.289895	0.034361	0.402938
	H2958	H	0.294534	-0.534859	0.435040
	H2959	H	0.278932	-0.534495	0.447082
	H2960	H	0.343038	-0.533124	0.432432
	H2961	H	0.358556	-0.532791	0.445964
	H2962	H	0.341467	0.034177	0.384608
	H2963	H	0.357052	0.034423	0.372615
	Al2964	Al	0.317787	0.000136	0.409111
	Al2965	Al	0.317777	0.249210	0.409099
	Al2966	Al	0.244763	0.249635	0.403423
	Al2967	Al	0.244795	0.000593	0.403588
	O2968	O	0.328670	0.040412	0.420489
	O2969	O	0.316797	0.124717	0.400293
	O2970	O	0.318406	0.374348	0.417937
	O2971	O	0.372573	0.040396	0.458812
	O2972	O	0.308554	0.040765	0.422979
	O2973	O	0.264718	0.040868	0.458428
	O2974	O	0.308449	0.208730	0.422728
	O2975	O	0.306069	0.291018	0.399246
	O2976	O	0.256502	0.290652	0.413231
	O2977	O	0.328629	0.208206	0.420572
	O2978	O	0.327245	0.290462	0.396074
	O2979	O	0.370951	0.291045	0.360138
	O2980	O	0.264700	0.208900	0.458525
	O2981	O	0.306080	0.459111	0.399312
	O2982	O	0.256509	0.458981	0.413358
	O2983	O	0.370979	0.458993	0.360177
	O2984	O	0.327221	0.458594	0.396064
	O2985	O	0.372561	0.208471	0.458750
	O2986	O	0.254319	0.374557	0.462795
	O2987	O	0.380890	0.125170	0.355257
	C2988	C	0.355121	0.213337	0.443107
	C2989	C	0.359596	0.124285	0.446999
	C2990	C	0.355147	0.035216	0.443043
	C2991	C	0.346395	0.035234	0.435430
	C2992	C	0.341882	0.124293	0.431639
	C2993	C	0.346371	0.213273	0.435500
	C2994	C	0.332405	0.124212	0.423598
	C2995	C	0.368909	0.124269	0.455509
	C2996	C	0.304908	0.124628	0.426075
	C2997	C	0.295693	0.124882	0.434184
	C2998	C	0.291204	0.214368	0.437741
	C2999	C	0.282406	0.214346	0.444561
	C3000	C	0.277845	0.124972	0.447981
	C3001	C	0.282374	0.035483	0.444521
	C3002	C	0.291172	0.035445	0.437718
	C3003	C	0.268423	0.125117	0.455565
	C3004	C	0.301812	0.375070	0.400138
	C3005	C	0.291133	0.375318	0.402785
	C3006	C	0.286129	0.465295	0.404483
	C3007	C	0.276425	0.465227	0.408004
	C3008	C	0.271453	0.375299	0.409867
	C3009	C	0.276455	0.285570	0.408122
	C3010	C	0.286156	0.285454	0.404602
	C3011	C	0.260753	0.374837	0.412421
	C3012	C	0.330970	0.374652	0.393163
	C3013	C	0.340352	0.375087	0.385519
	C3014	C	0.344876	0.285774	0.381959
	C3015	C	0.353624	0.285759	0.375121
	C3016	C	0.358157	0.375081	0.371562
	C3017	C	0.353654	0.464570	0.375205
	C3018	C	0.344895	0.464528	0.382043
	C3019	C	0.367374	0.374892	0.363395
	H3020	H	0.357005	0.216201	0.372412
	H3021	H	0.341494	0.216174	0.384616
	H3022	H	0.358490	0.282401	0.446108
	H3023	H	0.342998	0.282388	0.432523
	H3024	H	0.315285	0.124266	0.390940
	H3025	H	0.319148	0.374646	0.427503
	H3026	H	0.252903	0.374745	0.453393
	H3027	H	0.381731	0.125468	0.364834
	H3028	H	0.289926	0.215433	0.403264
	H3029	H	0.272759	0.215708	0.409597
	H3030	H	0.279029	0.284147	0.447259
	H3031	H	0.294591	0.284317	0.435144
	H3032	H	0.272670	0.534952	0.409390
	H3033	H	0.289875	0.535433	0.403091
	H3034	H	0.294518	-0.034458	0.435053
	H3035	H	0.278983	-0.034097	0.447150
	H3036	H	0.343030	-0.033910	0.432413
	H3037	H	0.358523	-0.033978	0.446081
	H3038	H	0.341484	0.533728	0.384708
	H3039	H	0.357028	0.534293	0.372567
	Al3040	Al	0.320131	-0.499945	0.534472
	Al3041	Al	0.320116	-0.250008	0.534458
	Al3042	Al	0.255298	-0.249486	0.471705
	Al3043	Al	0.255264	-0.500514	0.471538
	O3044	O	0.330008	-0.459085	0.547815
	O3045	O	0.320108	-0.375012	0.525761
	O3046	O	0.320131	-0.125021	0.543182
	O3047	O	0.370413	-0.458845	0.593807
	O3048	O	0.310026	-0.459162	0.546575
	O3049	O	0.267752	-0.458915	0.584843
	O3050	O	0.310017	-0.291087	0.546534
	O3051	O	0.310074	-0.209327	0.521390
	O3052	O	0.266152	-0.209060	0.483133
	O3053	O	0.329976	-0.291082	0.547856
	O3054	O	0.330237	-0.209217	0.522386
	O3055	O	0.372558	-0.209265	0.484060
	O3056	O	0.267676	-0.290903	0.584813
	O3057	O	0.310143	-0.041164	0.521297
	O3058	O	0.266166	-0.041373	0.482996
	O3059	O	0.372558	-0.041178	0.484034
	O3060	O	0.330203	-0.041116	0.522280
	O3061	O	0.370429	-0.290770	0.593682
	O3062	O	0.257650	-0.125354	0.588221
	O3063	O	0.382571	-0.375348	0.480583
	C3064	C	0.354251	-0.286128	0.575281
	C3065	C	0.358386	-0.375119	0.579937
	C3066	C	0.354280	-0.464204	0.575229
	C3067	C	0.346247	-0.463994	0.566075
	C3068	C	0.342118	-0.374972	0.561440
	C3069	C	0.346225	-0.285926	0.566110
	C3070	C	0.333431	-0.374958	0.551582
	C3071	C	0.367006	-0.375014	0.589941
	C3072	C	0.306445	-0.375025	0.549732
	C3073	C	0.297386	-0.374869	0.558019
	C3074	C	0.293014	-0.285824	0.561757
	C3075	C	0.284579	-0.285657	0.569360
	C3076	C	0.280311	-0.374614	0.573367
	C3077	C	0.284648	-0.463615	0.569563
	C3078	C	0.293083	-0.463700	0.561951
	C3079	C	0.271285	-0.374603	0.581698
	C3080	C	0.306450	-0.125419	0.518094
	C3081	C	0.297145	-0.125121	0.509600
	C3082	C	0.292726	-0.036201	0.505586
	C3083	C	0.283950	-0.036466	0.497997
	C3084	C	0.279382	-0.125292	0.494288
	C3085	C	0.283869	-0.214274	0.498166
	C3086	C	0.292641	-0.214098	0.505773
	C3087	C	0.269907	-0.125185	0.486150
	C3088	C	0.333786	-0.125098	0.519156
	C3089	C	0.342823	-0.125180	0.510815
	C3090	C	0.347162	-0.213856	0.506963
	C3091	C	0.355592	-0.213786	0.499350
	C3092	C	0.359889	-0.125015	0.495452
	C3093	C	0.355545	-0.036124	0.499270
	C3094	C	0.347111	-0.036266	0.506895
	C3095	C	0.368963	-0.125275	0.487187
	H3096	H	0.358874	-0.282724	0.496357
	H3097	H	0.343927	-0.283097	0.509963
	H3098	H	0.357359	-0.216967	0.578897
	H3099	H	0.343136	-0.216865	0.562596
	H3100	H	0.320006	-0.375005	0.516221
	H3101	H	0.320141	-0.124889	0.552804
	H3102	H	0.257492	-0.125080	0.578613
	H3103	H	0.382409	-0.374796	0.490272
	H3104	H	0.295990	-0.282900	0.508814
	H3105	H	0.280499	-0.283220	0.495182
	H3106	H	0.281268	-0.216735	0.572286
	H3107	H	0.296250	-0.216878	0.558711
	H3108	H	0.280629	0.032220	0.494846
	H3109	H	0.296118	0.032474	0.508444
	H3110	H	0.296401	-0.532679	0.559050
	H3111	H	0.281420	-0.532598	0.572662
	H3112	H	0.343146	-0.533241	0.562473
	H3113	H	0.357355	-0.533211	0.578770
	H3114	H	0.343822	0.032218	0.509862
	H3115	H	0.358782	0.032534	0.496238
	Al3116	Al	0.320167	0.000080	0.534413
	Al3117	Al	0.320169	0.249968	0.534455
	Al3118	Al	0.255302	0.250497	0.471646
	Al3119	Al	0.255307	-0.000670	0.471583
	O3120	O	0.330022	0.040845	0.547769
	O3121	O	0.320164	0.125204	0.525681
	O3122	O	0.320121	0.375075	0.543212
	O3123	O	0.370365	0.041330	0.593777
	O3124	O	0.310089	0.040670	0.546578
	O3125	O	0.267738	0.040490	0.584854
	O3126	O	0.310083	0.208635	0.546548
	O3127	O	0.310059	0.290604	0.521404
	O3128	O	0.266150	0.290719	0.483041
	O3129	O	0.330016	0.208797	0.547733
	O3130	O	0.330215	0.291303	0.522367
	O3131	O	0.372538	0.290838	0.484039
	O3132	O	0.267707	0.208642	0.584805
	O3133	O	0.310087	0.458781	0.521346
	O3134	O	0.266180	0.458674	0.482952
	O3135	O	0.372515	0.458904	0.483976
	O3136	O	0.330162	0.459160	0.522262
	O3137	O	0.370383	0.209308	0.593816
	O3138	O	0.257701	0.375033	0.588197
	O3139	O	0.382594	0.124737	0.480604
	C3140	C	0.354267	0.214123	0.575258
	C3141	C	0.358372	0.125234	0.579982
	C3142	C	0.354219	0.036305	0.575355
	C3143	C	0.346210	0.036209	0.566213
	C3144	C	0.342124	0.125091	0.561443
	C3145	C	0.346261	0.213875	0.566098
	C3146	C	0.333456	0.124834	0.551543
	C3147	C	0.366987	0.125245	0.589926
	C3148	C	0.306505	0.124818	0.549692
	C3149	C	0.297436	0.124598	0.557992
	C3150	C	0.293075	0.213745	0.561792
	C3151	C	0.284633	0.213902	0.569383
	C3152	C	0.280343	0.124750	0.573326
	C3153	C	0.284688	0.035612	0.569492
	C3154	C	0.293132	0.035404	0.561901
	C3155	C	0.271303	0.124792	0.581646
	C3156	C	0.306399	0.374599	0.518147
	C3157	C	0.297111	0.374580	0.509583
	C3158	C	0.292662	0.463343	0.505602
	C3159	C	0.283902	0.463517	0.497980
	C3160	C	0.279376	0.374556	0.494211
	C3161	C	0.283851	0.285838	0.498139
	C3162	C	0.292607	0.285643	0.505764
	C3163	C	0.269908	0.374706	0.486103
	C3164	C	0.333760	0.375208	0.519174
	C3165	C	0.342834	0.375081	0.510887
	C3166	C	0.347155	0.285935	0.507005
	C3167	C	0.355587	0.285805	0.499399
	C3168	C	0.359928	0.374726	0.495519
	C3169	C	0.355583	0.463682	0.499339
	C3170	C	0.347163	0.463898	0.506954
	C3171	C	0.368964	0.374926	0.487184
	H3172	H	0.358855	0.216688	0.496389
	H3173	H	0.343843	0.217235	0.509967
	H3174	H	0.357385	0.283232	0.578780
	H3175	H	0.343157	0.282748	0.562451
	H3176	H	0.320071	0.124931	0.516089
	H3177	H	0.320250	0.375316	0.552789
	H3178	H	0.257656	0.375108	0.578618
	H3179	H	0.382541	0.125230	0.490171
	H3180	H	0.295907	0.216686	0.508898
	H3181	H	0.280415	0.216958	0.495300
	H3182	H	0.281350	0.282912	0.572308
	H3183	H	0.296299	0.282718	0.558734
	H3184	H	0.280535	0.532420	0.494996
	H3185	H	0.296041	0.532499	0.508629
	H3186	H	0.296414	-0.033804	0.558924
	H3187	H	0.281447	-0.033323	0.572537
	H3188	H	0.343089	-0.033003	0.562703
	H3189	H	0.357290	-0.032529	0.579011
	H3190	H	0.343899	0.532917	0.509855
	H3191	H	0.358855	0.532498	0.496314
	Al3192	Al	0.317545	-0.500127	0.669866
	Al3193	Al	0.317579	-0.250103	0.669900
	Al3194	Al	0.257663	-0.249970	0.596986
	Al3195	Al	0.257656	-0.499944	0.596899
	O3196	O	0.327186	-0.458964	0.683603
	O3197	O	0.317725	-0.374948	0.661157
	O3198	O	0.317363	-0.125009	0.678590
	O3199	O	0.367053	-0.459285	0.730518
	O3200	O	0.307388	-0.458887	0.681817
	O3201	O	0.265305	-0.459221	0.720503
	O3202	O	0.307324	-0.290635	0.681732
	O3203	O	0.307918	-0.209148	0.656177
	O3204	O	0.267522	-0.209313	0.610379
	O3205	O	0.327230	-0.290993	0.683618
	O3206	O	0.327796	-0.208918	0.658030
	O3207	O	0.369827	-0.209307	0.619208
	O3208	O	0.265253	-0.291203	0.720512
	O3209	O	0.307863	-0.040862	0.656285
	O3210	O	0.267524	-0.041337	0.610256
	O3211	O	0.369834	-0.041183	0.619238
	O3212	O	0.327812	-0.040559	0.658038
	O3213	O	0.367087	-0.291270	0.730462
	O3214	O	0.255291	-0.125198	0.723702
	O3215	O	0.379871	-0.374702	0.616099
	C3216	C	0.351109	-0.286559	0.711702
	C3217	C	0.355186	-0.375525	0.716453
	C3218	C	0.351076	-0.464338	0.711700
	C3219	C	0.343144	-0.464024	0.702389
	C3220	C	0.339088	-0.375133	0.697617
	C3221	C	0.343180	-0.286344	0.702389
	C3222	C	0.330575	-0.375301	0.687501
	C3223	C	0.363686	-0.375349	0.726612
	C3224	C	0.303790	-0.374870	0.684935
	C3225	C	0.294801	-0.374986	0.693357
	C3226	C	0.290474	-0.285920	0.697200
	C3227	C	0.282095	-0.285872	0.704939
	C3228	C	0.277838	-0.374861	0.708935
	C3229	C	0.282184	-0.463998	0.705121
	C3230	C	0.290566	-0.463925	0.697387
	C3231	C	0.268842	-0.375143	0.717356
	C3232	C	0.304492	-0.125085	0.652433
	C3233	C	0.295887	-0.125146	0.642436
	C3234	C	0.291749	-0.036249	0.637803
	C3235	C	0.283726	-0.036331	0.628668
	C3236	C	0.279613	-0.125265	0.623996
	C3237	C	0.283760	-0.214205	0.628621
	C3238	C	0.291783	-0.214269	0.637745
	C3239	C	0.270960	-0.125371	0.614064
	C3240	C	0.331375	-0.124748	0.654900
	C3241	C	0.340386	-0.125056	0.646500
	C3242	C	0.344603	-0.214303	0.642474
	C3243	C	0.352961	-0.214287	0.634697
	C3244	C	0.357309	-0.125151	0.630852
	C3245	C	0.353061	-0.035978	0.634816
	C3246	C	0.344701	-0.036031	0.642592
	C3247	C	0.366297	-0.125168	0.622433
	H3248	H	0.356157	-0.283204	0.631597
	H3249	H	0.341323	-0.283299	0.645449
	H3250	H	0.354169	-0.217757	0.715401
	H3251	H	0.340116	-0.217506	0.698787
	H3252	H	0.317796	-0.375114	0.651634
	H3253	H	0.317176	-0.125311	0.688221
	H3254	H	0.255513	-0.125215	0.714079
	H3255	H	0.379461	-0.374882	0.625669
	H3256	H	0.294910	-0.283129	0.641306
	H3257	H	0.280677	-0.283056	0.625012
	H3258	H	0.278838	-0.216851	0.707942
	H3259	H	0.293639	-0.216865	0.694069
	H3260	H	0.280607	0.032365	0.625073
	H3261	H	0.294849	0.032518	0.641390
	H3262	H	0.293831	-0.532837	0.694413
	H3263	H	0.278982	-0.532958	0.708265
	H3264	H	0.340056	-0.532957	0.698727
	H3265	H	0.354102	-0.533108	0.715383
	H3266	H	0.341481	0.032837	0.645708
	H3267	H	0.356341	0.033146	0.631845
	Al3268	Al	0.317581	-0.000106	0.669897
	Al3269	Al	0.317570	0.249819	0.669876
	Al3270	Al	0.257638	0.249912	0.596925
	Al3271	Al	0.257675	-0.000224	0.596924
	O3272	O	0.327213	0.041098	0.683606
	O3273	O	0.317761	0.124895	0.661183
	O3274	O	0.317352	0.374887	0.678581
	O3275	O	0.367093	0.041061	0.730464
	O3276	O	0.307418	0.040969	0.681845
	O3277	O	0.265248	0.040514	0.720401
	O3278	O	0.307394	0.208925	0.681800
	O3279	O	0.307860	0.291054	0.656261
	O3280	O	0.267509	0.290741	0.610265
	O3281	O	0.327312	0.209308	0.683465
	O3282	O	0.327713	0.290923	0.657953
	O3283	O	0.369860	0.290863	0.619308
	O3284	O	0.265273	0.208786	0.720479
	O3285	O	0.307848	0.458978	0.656243
	O3286	O	0.267474	0.458737	0.610243
	O3287	O	0.369854	0.458868	0.619321
	O3288	O	0.327774	0.459064	0.657995
	O3289	O	0.367095	0.208827	0.730585
	O3290	O	0.255261	0.374921	0.723624
	O3291	O	0.379892	0.124824	0.616112
	C3292	C	0.351153	0.213981	0.711671
	C3293	C	0.355179	0.125142	0.716516
	C3294	C	0.351112	0.036214	0.711759
	C3295	C	0.343196	0.036123	0.702403
	C3296	C	0.339129	0.125108	0.697623
	C3297	C	0.343238	0.213793	0.702322
	C3298	C	0.330621	0.125189	0.687408
	C3299	C	0.363720	0.125110	0.726663
	C3300	C	0.303841	0.124858	0.685017
	C3301	C	0.294845	0.124941	0.693433
	C3302	C	0.290515	0.213817	0.697280
	C3303	C	0.282118	0.214002	0.704997
	C3304	C	0.277836	0.124964	0.708916
	C3305	C	0.282152	0.036117	0.705045
	C3306	C	0.290539	0.036023	0.697342
	C3307	C	0.268820	0.124618	0.717277
	C3308	C	0.304418	0.374854	0.652476
	C3309	C	0.295820	0.374830	0.642498
	C3310	C	0.291701	0.463844	0.637811
	C3311	C	0.283671	0.463927	0.628634
	C3312	C	0.279535	0.374956	0.623982
	C3313	C	0.283691	0.285854	0.628618
	C3314	C	0.291726	0.285835	0.637785
	C3315	C	0.270903	0.374790	0.614045
	C3316	C	0.331308	0.375060	0.654812
	C3317	C	0.340327	0.374895	0.646489
	C3318	C	0.344593	0.285694	0.642528
	C3319	C	0.352976	0.285736	0.634803
	C3320	C	0.357325	0.374850	0.630943
	C3321	C	0.353063	0.464040	0.634914
	C3322	C	0.344682	0.464082	0.642634
	C3323	C	0.366299	0.374961	0.622508
	H3324	H	0.356164	0.216776	0.631660
	H3325	H	0.341314	0.216846	0.645475
	H3326	H	0.354246	0.282770	0.715257
	H3327	H	0.340245	0.282573	0.698567
	H3328	H	0.317931	0.124645	0.651628
	H3329	H	0.317039	0.374229	0.688190
	H3330	H	0.255587	0.375455	0.714116
	H3331	H	0.379716	0.124722	0.625686
	H3332	H	0.294814	0.216330	0.641374
	H3333	H	0.280634	0.216631	0.625020
	H3334	H	0.278856	0.282586	0.707968
	H3335	H	0.293756	0.282375	0.694197
	H3336	H	0.280585	0.533470	0.625049
	H3337	H	0.294765	0.533068	0.641397
	H3338	H	0.293783	-0.032742	0.694360
	H3339	H	0.278898	-0.032642	0.708041
	H3340	H	0.340143	-0.032731	0.698682
	H3341	H	0.354152	-0.033013	0.715416
	H3342	H	0.341450	0.533307	0.645664
	H3343	H	0.356308	0.533128	0.631889
	Al3344	Al	0.314190	-0.499766	0.806616
	Al3345	Al	0.314211	-0.250140	0.806724
	Al3346	Al	0.255092	-0.250030	0.732455
	Al3347	Al	0.255045	-0.499978	0.732346
	O3348	O	0.323860	-0.458912	0.820354
	O3349	O	0.314392	-0.374837	0.797971
	O3350	O	0.314020	-0.125181	0.815411
	O3351	O	0.363689	-0.458853	0.867253
	O3352	O	0.303942	-0.459051	0.818510
	O3353	O	0.261915	-0.459102	0.857282
	O3354	O	0.304017	-0.290899	0.818604
	O3355	O	0.304517	-0.208919	0.793021
	O3356	O	0.264744	-0.209173	0.746120
	O3357	O	0.323826	-0.291087	0.820421
	O3358	O	0.324437	-0.209100	0.794837
	O3359	O	0.366488	-0.208881	0.756074
	O3360	O	0.261896	-0.291062	0.857281
	O3361	O	0.304584	-0.041039	0.792952
	O3362	O	0.264701	-0.041066	0.746142
	O3363	O	0.366475	-0.040519	0.756023
	O3364	O	0.324413	-0.040984	0.794766
	O3365	O	0.363673	-0.290886	0.867278
	O3366	O	0.251877	-0.125166	0.860408
	O3367	O	0.376493	-0.374644	0.752875
	C3368	C	0.347702	-0.286087	0.848515
	C3369	C	0.351738	-0.374935	0.853328
	C3370	C	0.347679	-0.464052	0.848542
	C3371	C	0.339747	-0.464197	0.839211
	C3372	C	0.335701	-0.375289	0.834429
	C3373	C	0.339786	-0.286176	0.839177
	C3374	C	0.327186	-0.375054	0.824303
	C3375	C	0.360292	-0.374828	0.863422
	C3376	C	0.300431	-0.374844	0.821753
	C3377	C	0.291427	-0.374993	0.830130
	C3378	C	0.287159	-0.285781	0.834065
	C3379	C	0.278756	-0.285561	0.841765
	C3380	C	0.274474	-0.374778	0.845700
	C3381	C	0.278762	-0.463988	0.841775
	C3382	C	0.287161	-0.464363	0.834062
	C3383	C	0.265443	-0.375063	0.854054
	C3384	C	0.301200	-0.125033	0.789070
	C3385	C	0.292677	-0.124654	0.778929
	C3386	C	0.288634	-0.035819	0.774177
	C3387	C	0.280699	-0.035798	0.764844
	C3388	C	0.276637	-0.124656	0.760067
	C3389	C	0.280702	-0.213542	0.764772
	C3390	C	0.288617	-0.213528	0.774103
	C3391	C	0.268090	-0.124761	0.749999
	C3392	C	0.327982	-0.125096	0.791649
	C3393	C	0.336999	-0.125251	0.783280
	C3394	C	0.341293	-0.214285	0.779317
	C3395	C	0.349679	-0.213881	0.771611
	C3396	C	0.353931	-0.124764	0.767653
	C3397	C	0.349652	-0.035875	0.771661
	C3398	C	0.341268	-0.036185	0.779375
	C3399	C	0.362943	-0.124671	0.759292
	H3400	H	0.352932	-0.282659	0.768587
	H3401	H	0.338097	-0.283124	0.782379
	H3402	H	0.350779	-0.217092	0.852152
	H3403	H	0.336764	-0.217346	0.835538
	H3404	H	0.314565	-0.374330	0.788409
	H3405	H	0.313798	-0.125261	0.824999
	H3406	H	0.252106	-0.125576	0.850798
	H3407	H	0.376424	-0.375102	0.762509
	H3408	H	0.291682	-0.282440	0.777721
	H3409	H	0.277680	-0.282495	0.761024
	H3410	H	0.275516	-0.216338	0.844767
	H3411	H	0.290384	-0.216592	0.830984
	H3412	H	0.277608	0.033303	0.761219
	H3413	H	0.291690	0.033079	0.777819
	H3414	H	0.290381	-0.533531	0.830974
	H3415	H	0.275517	-0.533099	0.844808
	H3416	H	0.336648	-0.533068	0.835587
	H3417	H	0.350714	-0.532799	0.852217
	H3418	H	0.338037	0.032721	0.782506
	H3419	H	0.352905	0.033117	0.768688
	Al3420	Al	0.314222	-0.000058	0.806690
	Al3421	Al	0.314221	0.250040	0.806712
	Al3422	Al	0.255057	0.250069	0.732340
	Al3423	Al	0.255053	-0.000198	0.732333
	O3424	O	0.323859	0.041057	0.820384
	O3425	O	0.314433	0.124844	0.798005
	O3426	O	0.314001	0.375353	0.815386
	O3427	O	0.363663	0.041274	0.867331
	O3428	O	0.303996	0.040681	0.818514
	O3429	O	0.261873	0.041022	0.857151
	O3430	O	0.304044	0.208906	0.818643
	O3431	O	0.304567	0.290731	0.792941
	O3432	O	0.264738	0.291174	0.746027
	O3433	O	0.323850	0.209282	0.820464
	O3434	O	0.324415	0.291012	0.794877
	O3435	O	0.366502	0.291007	0.756152
	O3436	O	0.261890	0.209108	0.857260
	O3437	O	0.304577	0.458731	0.792904
	O3438	O	0.264707	0.458938	0.746077
	O3439	O	0.366562	0.459221	0.756125
	O3440	O	0.324394	0.459343	0.794738
	O3441	O	0.363626	0.209598	0.867370
	O3442	O	0.251894	0.374882	0.860362
	O3443	O	0.376501	0.125240	0.752922
	C3444	C	0.347709	0.214359	0.848528
	C3445	C	0.351744	0.125325	0.853345
	C3446	C	0.347684	0.036179	0.848604
	C3447	C	0.339795	0.036093	0.839251
	C3448	C	0.335746	0.125119	0.834436
	C3449	C	0.339812	0.214321	0.839165
	C3450	C	0.327220	0.125123	0.824291
	C3451	C	0.360278	0.125370	0.863480
	C3452	C	0.300462	0.124880	0.821776
	C3453	C	0.291453	0.125038	0.830160
	C3454	C	0.287186	0.214189	0.834100
	C3455	C	0.278787	0.214196	0.841805
	C3456	C	0.274478	0.125074	0.845695
	C3457	C	0.278714	0.035785	0.841715
	C3458	C	0.287109	0.035940	0.834003
	C3459	C	0.265431	0.125155	0.854002
	C3460	C	0.301208	0.374583	0.789050
	C3461	C	0.292664	0.374668	0.778943
	C3462	C	0.288635	0.463733	0.774181
	C3463	C	0.280716	0.463897	0.764848
	C3464	C	0.276616	0.375169	0.760099
	C3465	C	0.280659	0.286314	0.764829
	C3466	C	0.288583	0.286066	0.774169
	C3467	C	0.268091	0.375010	0.749951
	C3468	C	0.327956	0.375241	0.791617
	C3469	C	0.336984	0.375295	0.783276
	C3470	C	0.341255	0.286248	0.779301
	C3471	C	0.349650	0.286326	0.771603
	C3472	C	0.353954	0.375566	0.767703
	C3473	C	0.349680	0.464555	0.771715
	C3474	C	0.341295	0.464587	0.779400
	C3475	C	0.362985	0.375183	0.759308
	H3476	H	0.352897	0.217440	0.768498
	H3477	H	0.337992	0.217376	0.782282
	H3478	H	0.350792	0.283459	0.852155
	H3479	H	0.336754	0.283007	0.835484
	H3480	H	0.314603	0.125178	0.788411
	H3481	H	0.313838	0.375487	0.824965
	H3482	H	0.252212	0.374750	0.850835
	H3483	H	0.376144	0.125035	0.762481
	H3484	H	0.291648	0.217174	0.777769
	H3485	H	0.277610	0.217395	0.761139
	H3486	H	0.275558	0.283117	0.844779
	H3487	H	0.290432	0.283348	0.831096
	H3488	H	0.277672	0.532758	0.761213
	H3489	H	0.291733	0.532327	0.777801
	H3490	H	0.290304	-0.033216	0.830918
	H3491	H	0.275416	-0.033364	0.844609
	H3492	H	0.336722	-0.033224	0.835626
	H3493	H	0.350734	-0.032828	0.852311
	H3494	H	0.338075	0.533523	0.782460
	H3495	H	0.352943	0.533408	0.768723
	Al3496	Al	0.310736	-0.500024	0.943447
	Al3497	Al	0.310736	-0.249839	0.943474
	Al3498	Al	0.251646	-0.250126	0.869162
	Al3499	Al	0.251669	-0.499889	0.869100
	O3500	O	0.320354	-0.459041	0.957201
	O3501	O	0.310937	-0.374808	0.934752
	O3502	O	0.310541	-0.125099	0.952207
	O3503	O	0.360284	-0.459114	1.004019
	O3504	O	0.300542	-0.459245	0.955348
	O3505	O	0.258419	-0.459096	0.994018
	O3506	O	0.300510	-0.290909	0.955284
	O3507	O	0.301144	-0.208939	0.929649
	O3508	O	0.261334	-0.209092	0.882869
	O3509	O	0.320360	-0.290917	0.957197
	O3510	O	0.320978	-0.209362	0.931606
	O3511	O	0.363043	-0.209121	0.892862
	O3512	O	0.258391	-0.291030	0.993995
	O3513	O	0.301141	-0.040766	0.929722
	O3514	O	0.261276	-0.040793	0.882836
	O3515	O	0.363060	-0.041075	0.892893
	O3516	O	0.320961	-0.041136	0.931594
	O3517	O	0.360309	-0.290911	1.003974
	O3518	O	0.248398	-0.124957	0.997228
	O3519	O	0.373097	-0.374658	0.889724
	C3520	C	0.344366	-0.286432	0.985135
	C3521	C	0.348371	-0.375083	0.990027
	C3522	C	0.344242	-0.463866	0.985352
	C3523	C	0.336307	-0.464103	0.976034
	C3524	C	0.332312	-0.375232	0.971144
	C3525	C	0.336441	-0.286484	0.975834
	C3526	C	0.323720	-0.375117	0.961087
	C3527	C	0.356918	-0.375008	1.000144
	C3528	C	0.297017	-0.375092	0.958576
	C3529	C	0.287975	-0.375294	0.966900
	C3530	C	0.283651	-0.286144	0.970741
	C3531	C	0.275228	-0.286064	0.978420
	C3532	C	0.270992	-0.374943	0.982463
	C3533	C	0.275352	-0.464123	0.978689
	C3534	C	0.283774	-0.464322	0.971015
	C3535	C	0.261956	-0.374805	0.990803
	C3536	C	0.297789	-0.124821	0.925810
	C3537	C	0.289253	-0.124594	0.915678
	C3538	C	0.285133	-0.035416	0.911042
	C3539	C	0.277213	-0.035454	0.901708
	C3540	C	0.273206	-0.124577	0.896850
	C3541	C	0.277299	-0.213798	0.901548
	C3542	C	0.285218	-0.213938	0.910856
	C3543	C	0.264673	-0.124781	0.886706
	C3544	C	0.324513	-0.125379	0.928397
	C3545	C	0.333534	-0.125306	0.920046
	C3546	C	0.337846	-0.214188	0.916154
	C3547	C	0.346217	-0.214179	0.908431
	C3548	C	0.350502	-0.125054	0.904490
	C3549	C	0.346207	-0.036114	0.908393
	C3550	C	0.337838	-0.036199	0.916142
	C3551	C	0.359486	-0.125154	0.896062
	H3552	H	0.349464	-0.283186	0.905398
	H3553	H	0.334634	-0.283043	0.919173
	H3554	H	0.347477	-0.217436	0.988696
	H3555	H	0.333394	-0.217463	0.972118
	H3556	H	0.311127	-0.374095	0.925178
	H3557	H	0.310417	-0.124555	0.961795
	H3558	H	0.248670	-0.124573	0.987647
	H3559	H	0.372760	-0.375125	0.899293
	H3560	H	0.288290	-0.283265	0.914464
	H3561	H	0.274282	-0.283206	0.897832
	H3562	H	0.271942	-0.217024	0.981330
	H3563	H	0.286866	-0.217244	0.967711
	H3564	H	0.274114	0.033607	0.898103
	H3565	H	0.288132	0.033644	0.914767
	H3566	H	0.287114	-0.533236	0.968211
	H3567	H	0.272165	-0.533253	0.981842
	H3568	H	0.333149	-0.532907	0.972554
	H3569	H	0.347256	-0.532494	0.989144
	H3570	H	0.334570	0.032720	0.919124
	H3571	H	0.349434	0.033005	0.905309
	Al3572	Al	0.310797	-0.000050	0.943460
	Al3573	Al	0.310795	0.250431	0.943446
	Al3574	Al	0.251684	0.250142	0.869059
	Al3575	Al	0.251650	-0.000116	0.869041
	O3576	O	0.320426	0.041186	0.957171
	O3577	O	0.310989	0.125180	0.934757
	O3578	O	0.310574	0.374978	0.952180
	O3579	O	0.360302	0.041374	1.004058
	O3580	O	0.300598	0.040894	0.955338
	O3581	O	0.258432	0.040967	0.993964
	O3582	O	0.300601	0.209024	0.955339
	O3583	O	0.301112	0.290998	0.929714
	O3584	O	0.261312	0.290911	0.882828
	O3585	O	0.320425	0.209362	0.957202
	O3586	O	0.320970	0.291399	0.931513
	O3587	O	0.363064	0.291548	0.892947
	O3588	O	0.258455	0.209085	0.993967
	O3589	O	0.301105	0.459208	0.929702
	O3590	O	0.261271	0.458993	0.882848
	O3591	O	0.363081	0.459398	0.892914
	O3592	O	0.320955	0.459279	0.931595
	O3593	O	0.360304	0.209343	1.004056
	O3594	O	0.248394	0.375219	0.997152
	O3595	O	0.373083	0.125091	0.889729
	C3596	C	0.344411	0.214240	0.985143
	C3597	C	0.348386	0.125300	0.990077
	C3598	C	0.344258	0.036342	0.985441
	C3599	C	0.336337	0.036445	0.976097
	C3600	C	0.332329	0.125267	0.971197
	C3601	C	0.336490	0.214156	0.975801
	C3602	C	0.323789	0.125260	0.961048
	C3603	C	0.356946	0.125334	1.000196
	C3604	C	0.297037	0.124906	0.958542
	C3605	C	0.288024	0.125004	0.966922
	C3606	C	0.283673	0.214216	0.970723
	C3607	C	0.275261	0.214385	0.978407
	C3608	C	0.271047	0.125057	0.982468
	C3609	C	0.275344	0.035897	0.978564
	C3610	C	0.283754	0.035891	0.970885
	C3611	C	0.261983	0.125113	0.990781
	C3612	C	0.297732	0.374972	0.925830
	C3613	C	0.289200	0.375030	0.915727
	C3614	C	0.285119	0.463970	0.911001
	C3615	C	0.277213	0.463966	0.901676
	C3616	C	0.273160	0.374993	0.896847
	C3617	C	0.277234	0.285854	0.901585
	C3618	C	0.285155	0.285892	0.910920
	C3619	C	0.264648	0.375055	0.886699
	C3620	C	0.324541	0.375266	0.928386
	C3621	C	0.333534	0.375601	0.920003
	C3622	C	0.337815	0.286525	0.916070
	C3623	C	0.346210	0.286517	0.908409
	C3624	C	0.350530	0.375562	0.904542
	C3625	C	0.346253	0.464551	0.908510
	C3626	C	0.337857	0.464526	0.916156
	C3627	C	0.359536	0.375617	0.896143
	H3628	H	0.349485	0.217652	0.905373
	H3629	H	0.334573	0.217581	0.919097
	H3630	H	0.347589	0.282975	0.988629
	H3631	H	0.333531	0.283029	0.971950
	H3632	H	0.311261	0.125502	0.925205
	H3633	H	0.310416	0.375561	0.961802
	H3634	H	0.248575	0.374838	0.987591
	H3635	H	0.372982	0.124912	0.899273
	H3636	H	0.288248	0.217170	0.914529
	H3637	H	0.274169	0.216985	0.897911
	H3638	H	0.271928	0.283614	0.981246
	H3639	H	0.286847	0.283240	0.967581
	H3640	H	0.274117	0.532718	0.898077
	H3641	H	0.288174	0.532721	0.914713
	H3642	H	0.286995	-0.033330	0.967906
	H3643	H	0.272078	-0.033160	0.981507
	H3644	H	0.333228	-0.032490	0.972534
	H3645	H	0.347267	-0.032722	0.989195
	H3646	H	0.334619	0.533264	0.919238
	H3647	H	0.349525	0.533628	0.905563
	Al3648	Al	0.429923	-0.499585	0.090605
	Al3649	Al	0.429916	-0.249908	0.090646
	Al3650	Al	0.369949	-0.250049	0.017655
	Al3651	Al	0.369933	-0.499878	0.017712
	O3652	O	0.439962	-0.458622	0.103668
	O3653	O	0.429964	-0.374645	0.081853
	O3654	O	0.429867	-0.124790	0.099350
	O3655	O	0.483924	-0.458810	0.142104
	O3656	O	0.419847	-0.459022	0.102684
	O3657	O	0.377458	-0.459143	0.140967
	O3658	O	0.419819	-0.291002	0.102712
	O3659	O	0.420045	-0.208629	0.077266
	O3660	O	0.379623	-0.208880	0.031294
	O3661	O	0.440027	-0.290501	0.103659
	O3662	O	0.439959	-0.208770	0.078437
	O3663	O	0.482367	-0.209005	0.040384
	O3664	O	0.377465	-0.290998	0.140954
	O3665	O	0.420040	-0.040704	0.077221
	O3666	O	0.379656	-0.040813	0.031307
	O3667	O	0.482386	-0.041016	0.040327
	O3668	O	0.440060	-0.040795	0.078616
	O3669	O	0.483891	-0.291052	0.142113
	O3670	O	0.367410	-0.124777	0.144299
	O3671	O	0.492431	-0.374719	0.036910
	C3672	C	0.466164	-0.286611	0.127034
	C3673	C	0.470646	-0.375414	0.130946
	C3674	C	0.466149	-0.464235	0.127097
	C3675	C	0.457415	-0.463999	0.119442
	C3676	C	0.452947	-0.375175	0.115473
	C3677	C	0.457434	-0.286462	0.119367
	C3678	C	0.443648	-0.374868	0.106920
	C3679	C	0.480147	-0.375001	0.138997
	C3680	C	0.416271	-0.375187	0.105907
	C3681	C	0.407200	-0.375208	0.114185
	C3682	C	0.402906	-0.286152	0.118098
	C3683	C	0.394474	-0.286279	0.125724
	C3684	C	0.390113	-0.375444	0.129555
	C3685	C	0.394404	-0.464580	0.125618
	C3686	C	0.402840	-0.464361	0.117998
	C3687	C	0.381052	-0.375126	0.137836
	C3688	C	0.416604	-0.124761	0.073491
	C3689	C	0.407926	-0.125073	0.063640
	C3690	C	0.403811	-0.036197	0.058922
	C3691	C	0.395776	-0.036080	0.049788
	C3692	C	0.391656	-0.124954	0.045096
	C3693	C	0.395791	-0.213941	0.049759
	C3694	C	0.403840	-0.214030	0.058890
	C3695	C	0.383033	-0.125065	0.035126
	C3696	C	0.443586	-0.124786	0.075377
	C3697	C	0.452649	-0.124825	0.067142
	C3698	C	0.456945	-0.213703	0.063218
	C3699	C	0.465383	-0.213829	0.055641
	C3700	C	0.469740	-0.124935	0.051812
	C3701	C	0.465424	-0.036176	0.055716
	C3702	C	0.456985	-0.035928	0.063311
	C3703	C	0.478808	-0.125073	0.043521
	H3704	H	0.468608	-0.282588	0.052628
	H3705	H	0.453663	-0.282526	0.066118
	H3706	H	0.469580	-0.217734	0.129963
	H3707	H	0.454134	-0.217353	0.116279
	H3708	H	0.430067	-0.374059	0.072284
	H3709	H	0.429998	-0.124842	0.108929
	H3710	H	0.367376	-0.125282	0.134726
	H3711	H	0.492489	-0.374916	0.046524
	H3712	H	0.406933	-0.283049	0.062502
	H3713	H	0.392762	-0.282971	0.046110
	H3714	H	0.391260	-0.217209	0.128797
	H3715	H	0.406214	-0.217072	0.115236
	H3716	H	0.392702	0.032890	0.046111
	H3717	H	0.406909	0.032626	0.062502
	H3718	H	0.406108	-0.533270	0.114982
	H3719	H	0.391158	-0.533767	0.128610
	H3720	H	0.454046	-0.532738	0.116384
	H3721	H	0.469514	-0.532872	0.130071
	H3722	H	0.453739	0.032914	0.066331
	H3723	H	0.468707	0.032701	0.052737
	Al3724	Al	0.429912	0.000270	0.090567
	Al3725	Al	0.429893	0.250019	0.090642
	Al3726	Al	0.369971	0.250011	0.017716
	Al3727	Al	0.369954	0.000401	0.017720
	O3728	O	0.439891	0.041244	0.103762
	O3729	O	0.429974	0.125139	0.081842
	O3730	O	0.429910	0.375283	0.099343
	O3731	O	0.483910	0.041366	0.142029
	O3732	O	0.419843	0.041442	0.102725
	O3733	O	0.377453	0.041495	0.140939
	O3734	O	0.419868	0.209598	0.102749
	O3735	O	0.420074	0.291400	0.077220
	O3736	O	0.379615	0.291180	0.031362
	O3737	O	0.440002	0.209565	0.103681
	O3738	O	0.439991	0.290748	0.078499
	O3739	O	0.482402	0.290946	0.040443
	O3740	O	0.377485	0.209549	0.140984
	O3741	O	0.420043	0.459238	0.077246
	O3742	O	0.379625	0.459450	0.031339
	O3743	O	0.482365	0.459125	0.040383
	O3744	O	0.440024	0.459049	0.078591
	O3745	O	0.483854	0.209486	0.142052
	O3746	O	0.367410	0.375226	0.144314
	O3747	O	0.492461	0.125474	0.036966
	C3748	C	0.466145	0.214133	0.126960
	C3749	C	0.470634	0.125103	0.130845
	C3750	C	0.466123	0.036187	0.127081
	C3751	C	0.457377	0.035859	0.119471
	C3752	C	0.452912	0.124873	0.115525
	C3753	C	0.457402	0.213973	0.119345
	C3754	C	0.443594	0.125164	0.107009
	C3755	C	0.480138	0.125398	0.138985
	C3756	C	0.416290	0.125586	0.105914
	C3757	C	0.407255	0.125341	0.114247
	C3758	C	0.402955	0.214442	0.118182
	C3759	C	0.394504	0.214316	0.125777
	C3760	C	0.390127	0.125245	0.129559
	C3761	C	0.394460	0.036202	0.125697
	C3762	C	0.402910	0.036196	0.118095
	C3763	C	0.381061	0.125524	0.137826
	C3764	C	0.416619	0.375199	0.073462
	C3765	C	0.407979	0.375270	0.063541
	C3766	C	0.403819	0.464301	0.058928
	C3767	C	0.395783	0.464737	0.049789
	C3768	C	0.391674	0.375595	0.045068
	C3769	C	0.395772	0.286546	0.049776
	C3770	C	0.403807	0.286328	0.058907
	C3771	C	0.383028	0.375344	0.035152
	C3772	C	0.443563	0.374958	0.075378
	C3773	C	0.452634	0.374928	0.067136
	C3774	C	0.456942	0.285939	0.063263
	C3775	C	0.465397	0.286131	0.055700
	C3776	C	0.469743	0.374926	0.051851
	C3777	C	0.465454	0.463907	0.055754
	C3778	C	0.456999	0.463771	0.063326
	C3779	C	0.478797	0.375087	0.043552
	H3780	H	0.468638	0.217128	0.052664
	H3781	H	0.453604	0.217166	0.066176
	H3782	H	0.469544	0.283029	0.129904
	H3783	H	0.454012	0.282926	0.116356
	H3784	H	0.430063	0.125796	0.072294
	H3785	H	0.430145	0.374883	0.108920
	H3786	H	0.367647	0.374775	0.134715
	H3787	H	0.492663	0.125712	0.046522
	H3788	H	0.406861	0.217342	0.062524
	H3789	H	0.392616	0.217522	0.046262
	H3790	H	0.391252	0.283471	0.128767
	H3791	H	0.406239	0.283647	0.115267
	H3792	H	0.392652	0.534008	0.046279
	H3793	H	0.406921	0.533351	0.062607
	H3794	H	0.406185	-0.033119	0.115094
	H3795	H	0.391184	-0.032969	0.128645
	H3796	H	0.453956	-0.032764	0.116569
	H3797	H	0.469505	-0.032309	0.130082
	H3798	H	0.453743	0.532598	0.066300
	H3799	H	0.468738	0.532794	0.052787
	Al3800	Al	0.432197	-0.500169	0.215863
	Al3801	Al	0.432244	-0.249216	0.215976
	Al3802	Al	0.367397	-0.249847	0.153076
	Al3803	Al	0.367319	-0.499828	0.153106
	O3804	O	0.443978	-0.459324	0.225712
	O3805	O	0.431683	-0.374608	0.207027
	O3806	O	0.433200	-0.124665	0.224750
	O3807	O	0.493492	-0.458781	0.211561
	O3808	O	0.422795	-0.458967	0.228994
	O3809	O	0.379002	-0.459118	0.264694
	O3810	O	0.422808	-0.290871	0.229055
	O3811	O	0.421339	-0.208651	0.204627
	O3812	O	0.377413	-0.208810	0.166154
	O3813	O	0.443937	-0.291062	0.225773
	O3814	O	0.441429	-0.209053	0.202049
	O3815	O	0.485357	-0.208645	0.166584
	O3816	O	0.378971	-0.290901	0.264676
	O3817	O	0.421316	-0.040592	0.204659
	O3818	O	0.377479	-0.040493	0.166063
	O3819	O	0.485349	-0.040558	0.166590
	O3820	O	0.441466	-0.040916	0.202138
	O3821	O	0.493509	-0.290445	0.211619
	O3822	O	0.369100	-0.125063	0.269506
	O3823	O	0.495788	-0.374746	0.162282
	C3824	C	0.473576	-0.284898	0.216833
	C3825	C	0.478571	-0.374769	0.215005
	C3826	C	0.473572	-0.464754	0.216770
	C3827	C	0.463869	-0.464850	0.220340
	C3828	C	0.458879	-0.374991	0.222243
	C3829	C	0.463875	-0.285104	0.220442
	C3830	C	0.448205	-0.375075	0.224873
	C3831	C	0.489251	-0.374719	0.212454
	C3832	C	0.419075	-0.374955	0.231948
	C3833	C	0.409674	-0.374840	0.239578
	C3834	C	0.405122	-0.285253	0.243006
	C3835	C	0.396357	-0.285143	0.249829
	C3836	C	0.391813	-0.374603	0.253390
	C3837	C	0.396281	-0.464047	0.249737
	C3838	C	0.405047	-0.464248	0.242913
	C3839	C	0.382581	-0.374757	0.261502
	C3840	C	0.417597	-0.124817	0.201508
	C3841	C	0.408162	-0.124952	0.193323
	C3842	C	0.403688	-0.035602	0.189449
	C3843	C	0.394945	-0.035473	0.181783
	C3844	C	0.390451	-0.124808	0.177887
	C3845	C	0.394906	-0.214080	0.181839
	C3846	C	0.403663	-0.214273	0.189488
	C3847	C	0.381102	-0.124666	0.169390
	C3848	C	0.445030	-0.125049	0.198897
	C3849	C	0.454312	-0.124862	0.190836
	C3850	C	0.458860	-0.214356	0.187346
	C3851	C	0.467680	-0.214344	0.180611
	C3852	C	0.472185	-0.124745	0.177089
	C3853	C	0.467623	-0.035272	0.180541
	C3854	C	0.458808	-0.035298	0.187271
	C3855	C	0.481635	-0.124522	0.169532
	H3856	H	0.471112	-0.284159	0.178046
	H3857	H	0.455497	-0.284264	0.189975
	H3858	H	0.477310	-0.214848	0.215469
	H3859	H	0.460135	-0.215115	0.221836
	H3860	H	0.431060	-0.374851	0.197404
	H3861	H	0.434640	-0.125048	0.234154
	H3862	H	0.368411	-0.125345	0.259875
	H3863	H	0.497278	-0.374490	0.171652
	H3864	H	0.407019	-0.283663	0.192519
	H3865	H	0.391506	-0.283269	0.178869
	H3866	H	0.392989	-0.215423	0.252480
	H3867	H	0.408536	-0.215689	0.240359
	H3868	H	0.391583	0.033472	0.178856
	H3869	H	0.407059	0.033962	0.192459
	H3870	H	0.408422	-0.533831	0.240227
	H3871	H	0.392860	-0.533641	0.252356
	H3872	H	0.460148	-0.534882	0.221678
	H3873	H	0.477309	-0.534772	0.215348
	H3874	H	0.455383	0.034558	0.189913
	H3875	H	0.471003	0.034679	0.177899
	Al3876	Al	0.432236	-0.000155	0.215964
	Al3877	Al	0.432232	0.251001	0.215908
	Al3878	Al	0.367349	0.250358	0.153106
	Al3879	Al	0.367375	0.000454	0.153035
	O3880	O	0.443994	0.041371	0.225773
	O3881	O	0.431684	0.125271	0.207066
	O3882	O	0.433151	0.375389	0.224651
	O3883	O	0.493510	0.041102	0.211553
	O3884	O	0.422881	0.041348	0.229157
	O3885	O	0.378974	0.041574	0.264586
	O3886	O	0.422901	0.209196	0.229178
	O3887	O	0.421349	0.291236	0.204410
	O3888	O	0.377370	0.290872	0.166154
	O3889	O	0.443944	0.209467	0.225752
	O3890	O	0.441503	0.290905	0.202114
	O3891	O	0.485362	0.291146	0.166683
	O3892	O	0.379003	0.209554	0.264611
	O3893	O	0.421354	0.459318	0.204433
	O3894	O	0.377374	0.459120	0.166140
	O3895	O	0.485384	0.459209	0.166708
	O3896	O	0.441486	0.458969	0.202126
	O3897	O	0.493485	0.209443	0.211718
	O3898	O	0.369144	0.375261	0.269546
	O3899	O	0.495731	0.125141	0.162200
	C3900	C	0.473584	0.215061	0.216809
	C3901	C	0.478556	0.125180	0.215023
	C3902	C	0.473548	0.035421	0.216846
	C3903	C	0.463856	0.035569	0.220425
	C3904	C	0.458883	0.125531	0.222243
	C3905	C	0.463887	0.215254	0.220391
	C3906	C	0.448227	0.125583	0.224875
	C3907	C	0.489249	0.125158	0.212500
	C3908	C	0.419206	0.125341	0.232105
	C3909	C	0.409780	0.125260	0.239705
	C3910	C	0.405201	0.214916	0.243100
	C3911	C	0.396404	0.214996	0.249845
	C3912	C	0.391880	0.125321	0.253434
	C3913	C	0.396399	0.035690	0.249884
	C3914	C	0.405197	0.035639	0.243138
	C3915	C	0.382605	0.125869	0.261421
	C3916	C	0.417607	0.375318	0.201357
	C3917	C	0.408096	0.374992	0.193295
	C3918	C	0.403555	0.464043	0.189530
	C3919	C	0.394800	0.464170	0.181939
	C3920	C	0.390347	0.375236	0.177949
	C3921	C	0.394849	0.286195	0.181797
	C3922	C	0.403604	0.285875	0.189405
	C3923	C	0.381042	0.374958	0.169401
	C3924	C	0.445087	0.374780	0.198932
	C3925	C	0.454316	0.374825	0.190813
	C3926	C	0.458815	0.285411	0.187253
	C3927	C	0.467636	0.285553	0.180496
	C3928	C	0.472189	0.375201	0.177112
	C3929	C	0.467644	0.464564	0.180567
	C3930	C	0.458829	0.464491	0.187320
	C3931	C	0.481640	0.375238	0.169599
	H3932	H	0.471034	0.216007	0.177868
	H3933	H	0.455439	0.215453	0.189844
	H3934	H	0.477342	0.284898	0.215374
	H3935	H	0.460158	0.285684	0.221789
	H3936	H	0.431019	0.125079	0.197486
	H3937	H	0.434598	0.375084	0.234037
	H3938	H	0.368415	0.374651	0.259932
	H3939	H	0.497174	0.125652	0.171539
	H3940	H	0.407037	0.216648	0.192259
	H3941	H	0.391488	0.217435	0.178705
	H3942	H	0.392974	0.284891	0.252411
	H3943	H	0.408600	0.284730	0.240451
	H3944	H	0.391403	0.533169	0.179026
	H3945	H	0.406940	0.532911	0.192523
	H3946	H	0.408630	-0.034165	0.240489
	H3947	H	0.392967	-0.034144	0.252485
	H3948	H	0.460089	-0.034429	0.221790
	H3949	H	0.477276	-0.034561	0.215444
	H3950	H	0.455468	0.534457	0.189972
	H3951	H	0.471068	0.534439	0.178029
	Al3952	Al	0.442710	-0.499568	0.283857
	Al3953	Al	0.442718	-0.250387	0.283963
	Al3954	Al	0.369730	-0.250455	0.278449
	Al3955	Al	0.369796	-0.499622	0.278505
	O3956	O	0.453565	-0.459345	0.295365
	O3957	O	0.441718	-0.375040	0.275127
	O3958	O	0.443346	-0.125037	0.292811
	O3959	O	0.497497	-0.459196	0.333715
	O3960	O	0.433460	-0.459257	0.297665
	O3961	O	0.389637	-0.459326	0.333222
	O3962	O	0.433479	-0.291256	0.297699
	O3963	O	0.431004	-0.209205	0.274196
	O3964	O	0.381446	-0.208518	0.288263
	O3965	O	0.453590	-0.291459	0.295338
	O3966	O	0.452126	-0.209012	0.270745
	O3967	O	0.495967	-0.208872	0.235207
	O3968	O	0.389692	-0.291220	0.333292
	O3969	O	0.431010	-0.040984	0.274080
	O3970	O	0.381463	-0.040254	0.288111
	O3971	O	0.495908	-0.040671	0.235108
	O3972	O	0.452119	-0.040907	0.270771
	O3973	O	0.497519	-0.291140	0.333760
	O3974	O	0.379232	-0.124936	0.337726
	O3975	O	0.505861	-0.375224	0.230299
	C3976	C	0.480043	-0.286253	0.318037
	C3977	C	0.484528	-0.375155	0.321953
	C3978	C	0.480047	-0.464319	0.318093
	C3979	C	0.471297	-0.464232	0.310475
	C3980	C	0.466798	-0.375262	0.306585
	C3981	C	0.471289	-0.286286	0.310423
	C3982	C	0.457317	-0.375215	0.298461
	C3983	C	0.493854	-0.375200	0.330461
	C3984	C	0.429847	-0.375144	0.300866
	C3985	C	0.420662	-0.375238	0.308980
	C3986	C	0.416171	-0.285878	0.312629
	C3987	C	0.407367	-0.285744	0.319461
	C3988	C	0.402784	-0.375253	0.322794
	C3989	C	0.407336	-0.464751	0.319334
	C3990	C	0.416142	-0.464817	0.312510
	C3991	C	0.393373	-0.375218	0.330358
	C3992	C	0.426767	-0.125100	0.274983
	C3993	C	0.416062	-0.124904	0.277592
	C3994	C	0.411068	-0.034955	0.279295
	C3995	C	0.401362	-0.034941	0.282854
	C3996	C	0.396393	-0.124775	0.284735
	C3997	C	0.401364	-0.214704	0.282961
	C3998	C	0.411065	-0.214794	0.279398
	C3999	C	0.385700	-0.124614	0.287359
	C4000	C	0.455838	-0.124892	0.267868
	C4001	C	0.465264	-0.124837	0.260269
	C4002	C	0.469784	-0.214431	0.256763
	C4003	C	0.478569	-0.214511	0.249953
	C4004	C	0.483118	-0.124949	0.246470
	C4005	C	0.478620	-0.035386	0.250073
	C4006	C	0.469837	-0.035322	0.256890
	C4007	C	0.492340	-0.124560	0.238349
	H4008	H	0.481937	-0.284327	0.247237
	H4009	H	0.466388	-0.284093	0.259348
	H4010	H	0.483404	-0.217368	0.321051
	H4011	H	0.467903	-0.217412	0.307408
	H4012	H	0.440294	-0.374562	0.265689
	H4013	H	0.443976	-0.124935	0.302390
	H4014	H	0.377755	-0.124770	0.328359
	H4015	H	0.506544	-0.375519	0.239887
	H4016	H	0.414787	-0.284780	0.278003
	H4017	H	0.397599	-0.284784	0.284357
	H4018	H	0.404014	-0.215946	0.322176
	H4019	H	0.419552	-0.216019	0.310029
	H4020	H	0.397625	0.035314	0.284153
	H4021	H	0.414797	0.035138	0.277821
	H4022	H	0.419501	-0.534769	0.309811
	H4023	H	0.403932	-0.534557	0.321902
	H4024	H	0.467927	-0.533157	0.307538
	H4025	H	0.483408	-0.533561	0.321150
	H4026	H	0.466457	0.034488	0.259564
	H4027	H	0.481998	0.034606	0.247441
	Al4028	Al	0.442718	0.000340	0.283947
	Al4029	Al	0.442718	0.249631	0.283959
	Al4030	Al	0.369746	0.249671	0.278412
	Al4031	Al	0.369717	0.000556	0.278331
	O4032	O	0.453568	0.040937	0.295449
	O4033	O	0.441775	0.124997	0.275174
	O4034	O	0.443342	0.374925	0.292769
	O4035	O	0.497487	0.040849	0.333734
	O4036	O	0.433447	0.040655	0.297658
	O4037	O	0.389647	0.040798	0.333326
	O4038	O	0.433468	0.208775	0.297708
	O4039	O	0.430982	0.290566	0.274127
	O4040	O	0.381457	0.290826	0.288285
	O4041	O	0.453575	0.208949	0.295360
	O4042	O	0.452141	0.290955	0.270721
	O4043	O	0.496007	0.291138	0.235281
	O4044	O	0.389647	0.208729	0.333230
	O4045	O	0.430974	0.458731	0.274067
	O4046	O	0.381511	0.459086	0.288298
	O4047	O	0.495980	0.458930	0.235205
	O4048	O	0.452160	0.459013	0.270754
	O4049	O	0.497458	0.209177	0.333751
	O4050	O	0.379217	0.374994	0.337557
	O4051	O	0.505839	0.124866	0.230310
	C4052	C	0.480088	0.213715	0.317916
	C4053	C	0.484526	0.124767	0.321940
	C4054	C	0.480009	0.035774	0.318123
	C4055	C	0.471255	0.035774	0.310520
	C4056	C	0.466798	0.124746	0.306559
	C4057	C	0.471336	0.213749	0.310306
	C4058	C	0.457318	0.124948	0.298467
	C4059	C	0.493825	0.124985	0.330470
	C4060	C	0.429846	0.124626	0.300855
	C4061	C	0.420618	0.124528	0.308979
	C4062	C	0.416139	0.214015	0.312617
	C4063	C	0.407359	0.213919	0.319455
	C4064	C	0.402796	0.124354	0.322810
	C4065	C	0.407319	0.034874	0.319316
	C4066	C	0.416105	0.034860	0.312494
	C4067	C	0.393366	0.124585	0.330384
	C4068	C	0.426726	0.374627	0.274968
	C4069	C	0.416041	0.374728	0.277540
	C4070	C	0.411083	0.464656	0.279450
	C4071	C	0.401378	0.464644	0.283011
	C4072	C	0.396380	0.374739	0.284750
	C4073	C	0.401352	0.284849	0.282893
	C4074	C	0.411055	0.285009	0.279318
	C4075	C	0.385733	0.374784	0.287414
	C4076	C	0.455865	0.374886	0.267829
	C4077	C	0.465303	0.374817	0.260310
	C4078	C	0.469810	0.285186	0.256799
	C4079	C	0.478626	0.285048	0.249991
	C4080	C	0.483158	0.374725	0.246473
	C4081	C	0.478648	0.464323	0.250040
	C4082	C	0.469839	0.464413	0.256859
	C4083	C	0.492416	0.374956	0.238466
	H4084	H	0.481969	0.214896	0.247349
	H4085	H	0.466388	0.215524	0.259377
	H4086	H	0.483457	0.282870	0.320834
	H4087	H	0.467995	0.282558	0.307171
	H4088	H	0.440392	0.125176	0.265865
	H4089	H	0.444058	0.375076	0.302396
	H4090	H	0.377730	0.375522	0.328145
	H4091	H	0.506441	0.123922	0.239844
	H4092	H	0.414789	0.215196	0.277851
	H4093	H	0.397628	0.214954	0.284182
	H4094	H	0.404020	0.283644	0.322193
	H4095	H	0.419519	0.284043	0.310046
	H4096	H	0.397623	0.534460	0.284427
	H4097	H	0.414797	0.534648	0.278026
	H4098	H	0.419465	-0.035150	0.309808
	H4099	H	0.403931	-0.034929	0.321944
	H4100	H	0.467862	-0.033358	0.307575
	H4101	H	0.483352	-0.033003	0.321255
	H4102	H	0.466460	0.534147	0.259444
	H4103	H	0.482036	0.534218	0.247415
	Al4104	Al	0.445103	-0.499918	0.409365
	Al4105	Al	0.445121	-0.249988	0.409378
	Al4106	Al	0.380232	-0.249494	0.346454
	Al4107	Al	0.380258	-0.500643	0.346384
	O4108	O	0.454975	-0.459245	0.422750
	O4109	O	0.445145	-0.375036	0.400636
	O4110	O	0.445007	-0.124795	0.418113
	O4111	O	0.495397	-0.458895	0.468579
	O4112	O	0.435038	-0.458971	0.421498
	O4113	O	0.392617	-0.459145	0.459652
	O4114	O	0.435050	-0.290867	0.421504
	O4115	O	0.435052	-0.209313	0.396286
	O4116	O	0.391134	-0.208728	0.357865
	O4117	O	0.454946	-0.291316	0.422716
	O4118	O	0.455182	-0.209112	0.397286
	O4119	O	0.497464	-0.209117	0.358839
	O4120	O	0.392681	-0.291041	0.459743
	O4121	O	0.435113	-0.041405	0.396243
	O4122	O	0.391129	-0.040906	0.357870
	O4123	O	0.497389	-0.040854	0.358723
	O4124	O	0.455159	-0.041043	0.397180
	O4125	O	0.495338	-0.290833	0.468645
	O4126	O	0.382655	-0.125347	0.463156
	O4127	O	0.507535	-0.375099	0.355550
	C4128	C	0.479176	-0.286226	0.450227
	C4129	C	0.483323	-0.375149	0.454860
	C4130	C	0.479191	-0.464132	0.450209
	C4131	C	0.471150	-0.464177	0.441096
	C4132	C	0.467027	-0.375203	0.436437
	C4133	C	0.471141	-0.286315	0.441107
	C4134	C	0.458389	-0.375242	0.426498
	C4135	C	0.491958	-0.374898	0.464784
	C4136	C	0.431469	-0.374987	0.424636
	C4137	C	0.422386	-0.374836	0.432915
	C4138	C	0.418047	-0.285932	0.436806
	C4139	C	0.409601	-0.285969	0.444423
	C4140	C	0.405270	-0.374989	0.448242
	C4141	C	0.409593	-0.463826	0.444331
	C4142	C	0.418032	-0.463786	0.436724
	C4143	C	0.396222	-0.375256	0.456517
	C4144	C	0.431401	-0.125149	0.393002
	C4145	C	0.422099	-0.125063	0.384467
	C4146	C	0.417584	-0.036189	0.380651
	C4147	C	0.408846	-0.035916	0.373016
	C4148	C	0.404369	-0.124622	0.369051
	C4149	C	0.408897	-0.213680	0.372800
	C4150	C	0.417643	-0.213783	0.380435
	C4151	C	0.394903	-0.124966	0.360944
	C4152	C	0.458751	-0.125103	0.394087
	C4153	C	0.467798	-0.125301	0.385740
	C4154	C	0.472104	-0.214465	0.381847
	C4155	C	0.480524	-0.214359	0.374173
	C4156	C	0.484814	-0.125250	0.370263
	C4157	C	0.480498	-0.036300	0.374164
	C4158	C	0.472081	-0.036256	0.381831
	C4159	C	0.493867	-0.124929	0.361955
	H4160	H	0.483811	-0.283595	0.371253
	H4161	H	0.468865	-0.283460	0.384864
	H4162	H	0.482257	-0.217289	0.453841
	H4163	H	0.468067	-0.217452	0.437455
	H4164	H	0.445124	-0.374990	0.391064
	H4165	H	0.444692	-0.124753	0.427664
	H4166	H	0.382487	-0.125413	0.453530
	H4167	H	0.507447	-0.374745	0.365121
	H4168	H	0.421033	-0.282586	0.383394
	H4169	H	0.405506	-0.282291	0.369776
	H4170	H	0.406340	-0.217293	0.447410
	H4171	H	0.421280	-0.216944	0.433808
	H4172	H	0.405445	0.033106	0.370167
	H4173	H	0.420920	0.032732	0.383753
	H4174	H	0.421279	-0.532697	0.433700
	H4175	H	0.406332	-0.532876	0.447243
	H4176	H	0.468059	-0.532997	0.437474
	H4177	H	0.482277	-0.533130	0.453789
	H4178	H	0.468829	0.032995	0.384822
	H4179	H	0.483779	0.032720	0.371248
	Al4180	Al	0.445152	0.000210	0.409354
	Al4181	Al	0.445048	0.250128	0.409360
	Al4182	Al	0.380236	0.250473	0.346313
	Al4183	Al	0.380236	-0.000499	0.346536
	O4184	O	0.454978	0.040433	0.422737
	O4185	O	0.445140	0.125110	0.400589
	O4186	O	0.445049	0.374890	0.418161
	O4187	O	0.495396	0.041134	0.468583
	O4188	O	0.434984	0.040697	0.421370
	O4189	O	0.392676	0.040635	0.459686
	O4190	O	0.435029	0.208893	0.421558
	O4191	O	0.434958	0.290898	0.396393
	O4192	O	0.391114	0.290950	0.357730
	O4193	O	0.454944	0.208578	0.422692
	O4194	O	0.455110	0.291046	0.397236
	O4195	O	0.497486	0.291439	0.358888
	O4196	O	0.392670	0.208770	0.459756
	O4197	O	0.434960	0.458967	0.396417
	O4198	O	0.391140	0.458994	0.357748
	O4199	O	0.497465	0.459289	0.358938
	O4200	O	0.455140	0.458944	0.397184
	O4201	O	0.495330	0.209397	0.468608
	O4202	O	0.382643	0.374641	0.463080
	O4203	O	0.507490	0.124871	0.355518
	C4204	C	0.479179	0.213812	0.450178
	C4205	C	0.483334	0.124824	0.454795
	C4206	C	0.479228	0.035514	0.450129
	C4207	C	0.471183	0.035255	0.440999
	C4208	C	0.467032	0.124517	0.436383
	C4209	C	0.471136	0.213581	0.441056
	C4210	C	0.458364	0.124736	0.426500
	C4211	C	0.491949	0.125046	0.464791
	C4212	C	0.431433	0.124776	0.424628
	C4213	C	0.422364	0.124565	0.432873
	C4214	C	0.418055	0.213636	0.436795
	C4215	C	0.409620	0.213779	0.444407
	C4216	C	0.405285	0.124805	0.448251
	C4217	C	0.409580	0.035708	0.444326
	C4218	C	0.418019	0.035687	0.436701
	C4219	C	0.396240	0.124710	0.456560
	C4220	C	0.431305	0.374947	0.393131
	C4221	C	0.421988	0.375048	0.384565
	C4222	C	0.417529	0.463919	0.380624
	C4223	C	0.408803	0.463790	0.372951
	C4224	C	0.404316	0.374820	0.369058
	C4225	C	0.408837	0.286042	0.372870
	C4226	C	0.417565	0.286146	0.380550
	C4227	C	0.394883	0.374769	0.360841
	C4228	C	0.458706	0.374925	0.394018
	C4229	C	0.467736	0.374649	0.385702
	C4230	C	0.472069	0.285768	0.381839
	C4231	C	0.480504	0.285785	0.374215
	C4232	C	0.484812	0.374772	0.370328
	C4233	C	0.480469	0.463838	0.374177
	C4234	C	0.472036	0.463690	0.381799
	C4235	C	0.493887	0.375114	0.362058
	H4236	H	0.483738	0.216543	0.371203
	H4237	H	0.468836	0.216620	0.384874
	H4238	H	0.482232	0.282492	0.453759
	H4239	H	0.468004	0.282546	0.437549
	H4240	H	0.445133	0.124891	0.391064
	H4241	H	0.444936	0.375360	0.427737
	H4242	H	0.382721	0.374847	0.453572
	H4243	H	0.507385	0.124626	0.365095
	H4244	H	0.420963	0.217441	0.383510
	H4245	H	0.405521	0.217035	0.369744
	H4246	H	0.406372	0.282719	0.447388
	H4247	H	0.421349	0.282494	0.433801
	H4248	H	0.405454	0.532746	0.369882
	H4249	H	0.420909	0.533071	0.383646
	H4250	H	0.421274	-0.033199	0.433688
	H4251	H	0.406305	-0.033192	0.447278
	H4252	H	0.468073	-0.033735	0.437462
	H4253	H	0.482330	-0.033412	0.453765
	H4254	H	0.468768	0.532817	0.384773
	H4255	H	0.483715	0.532632	0.371146
	Al4256	Al	0.442508	-0.499873	0.544865
	Al4257	Al	0.442547	-0.250235	0.544922
	Al4258	Al	0.382652	-0.250136	0.471908
	Al4259	Al	0.382609	-0.500174	0.471816
	O4260	O	0.452243	-0.458981	0.558581
	O4261	O	0.442719	-0.375127	0.536156
	O4262	O	0.442362	-0.125015	0.553630
	O4263	O	0.492073	-0.459003	0.605486
	O4264	O	0.432343	-0.459040	0.556814
	O4265	O	0.390262	-0.459080	0.595506
	O4266	O	0.432363	-0.291092	0.556768
	O4267	O	0.432868	-0.208904	0.531225
	O4268	O	0.392482	-0.209306	0.485265
	O4269	O	0.452241	-0.290914	0.558568
	O4270	O	0.452742	-0.209338	0.533024
	O4271	O	0.494837	-0.209152	0.494221
	O4272	O	0.390253	-0.291026	0.595488
	O4273	O	0.432868	-0.040876	0.531232
	O4274	O	0.392520	-0.041407	0.485246
	O4275	O	0.494775	-0.041241	0.494109
	O4276	O	0.452744	-0.041177	0.533046
	O4277	O	0.492062	-0.290957	0.605486
	O4278	O	0.380226	-0.124750	0.598686
	O4279	O	0.504815	-0.375167	0.491007
	C4280	C	0.476095	-0.285778	0.586724
	C4281	C	0.480153	-0.374912	0.591503
	C4282	C	0.476083	-0.464050	0.586756
	C4283	C	0.468174	-0.464177	0.577411
	C4284	C	0.464128	-0.375065	0.572603
	C4285	C	0.468186	-0.285864	0.577367
	C4286	C	0.455622	-0.374917	0.562454
	C4287	C	0.488702	-0.375028	0.601619
	C4288	C	0.428811	-0.375014	0.559992
	C4289	C	0.419800	-0.374851	0.568391
	C4290	C	0.415519	-0.285735	0.572340
	C4291	C	0.407120	-0.285813	0.580038
	C4292	C	0.402822	-0.374933	0.583938
	C4293	C	0.407118	-0.463900	0.580034
	C4294	C	0.415507	-0.463834	0.572334
	C4295	C	0.393813	-0.374897	0.592295
	C4296	C	0.429463	-0.124874	0.527428
	C4297	C	0.420858	-0.125032	0.517448
	C4298	C	0.416719	-0.036170	0.512784
	C4299	C	0.408691	-0.036039	0.503638
	C4300	C	0.404588	-0.125024	0.498944
	C4301	C	0.408735	-0.213976	0.503605
	C4302	C	0.416763	-0.213965	0.512756
	C4303	C	0.395915	-0.125444	0.489060
	C4304	C	0.456311	-0.125523	0.529832
	C4305	C	0.465321	-0.125639	0.521494
	C4306	C	0.469609	-0.214637	0.517578
	C4307	C	0.477986	-0.214539	0.509803
	C4308	C	0.482256	-0.125517	0.505808
	C4309	C	0.477972	-0.036592	0.509761
	C4310	C	0.469604	-0.036813	0.517519
	C4311	C	0.491258	-0.125156	0.497375
	H4312	H	0.481222	-0.283460	0.506731
	H4313	H	0.466382	-0.283663	0.520608
	H4314	H	0.479157	-0.216845	0.590325
	H4315	H	0.465129	-0.216927	0.573686
	H4316	H	0.442780	-0.374942	0.526553
	H4317	H	0.442078	-0.125002	0.563101
	H4318	H	0.380289	-0.125120	0.589153
	H4319	H	0.504603	-0.375222	0.500571
	H4320	H	0.419861	-0.283026	0.516361
	H4321	H	0.405627	-0.283133	0.500019
	H4322	H	0.403883	-0.216728	0.583070
	H4323	H	0.418765	-0.216880	0.569297
	H4324	H	0.405567	0.032889	0.500092
	H4325	H	0.419793	0.032589	0.516426
	H4326	H	0.418749	-0.532751	0.569307
	H4327	H	0.403879	-0.532816	0.583055
	H4328	H	0.465121	-0.533213	0.573793
	H4329	H	0.479151	-0.532937	0.590402
	H4330	H	0.466366	0.032150	0.520483
	H4331	H	0.481206	0.032598	0.506703
	Al4332	Al	0.442547	-0.000028	0.544879
	Al4333	Al	0.442525	0.249891	0.544901
	Al4334	Al	0.382603	0.249831	0.471878
	Al4335	Al	0.382637	-0.000341	0.471921
	O4336	O	0.452176	0.040806	0.558589
	O4337	O	0.442714	0.124830	0.536147
	O4338	O	0.442362	0.375055	0.553600
	O4339	O	0.492053	0.040733	0.605520
	O4340	O	0.432349	0.041086	0.556755
	O4341	O	0.390268	0.041124	0.595535
	O4342	O	0.432343	0.209258	0.556779
	O4343	O	0.432852	0.290920	0.531219
	O4344	O	0.392453	0.290952	0.485175
	O4345	O	0.452198	0.208805	0.558534
	O4346	O	0.452726	0.290793	0.533011
	O4347	O	0.494830	0.290964	0.494242
	O4348	O	0.390250	0.209078	0.595477
	O4349	O	0.432821	0.459139	0.531201
	O4350	O	0.392470	0.458911	0.485205
	O4351	O	0.494771	0.459128	0.494201
	O4352	O	0.452728	0.458984	0.533015
	O4353	O	0.492065	0.208675	0.605541
	O4354	O	0.380300	0.375078	0.598711
	O4355	O	0.504816	0.124927	0.490982
	C4356	C	0.476117	0.214142	0.586653
	C4357	C	0.480175	0.125085	0.591459
	C4358	C	0.476124	0.036012	0.586661
	C4359	C	0.468196	0.035851	0.577311
	C4360	C	0.464146	0.124853	0.572517
	C4361	C	0.468195	0.213968	0.577306
	C4362	C	0.455570	0.124853	0.562439
	C4363	C	0.488722	0.124826	0.601628
	C4364	C	0.428801	0.125213	0.559995
	C4365	C	0.419799	0.125015	0.568367
	C4366	C	0.415503	0.214021	0.572316
	C4367	C	0.407125	0.214070	0.580022
	C4368	C	0.402841	0.125120	0.583970
	C4369	C	0.407162	0.036165	0.580097
	C4370	C	0.415537	0.036075	0.572372
	C4371	C	0.393813	0.125221	0.592306
	C4372	C	0.429452	0.374850	0.527379
	C4373	C	0.420806	0.374562	0.517437
	C4374	C	0.416661	0.463530	0.512770
	C4375	C	0.408646	0.463805	0.503591
	C4376	C	0.404555	0.374759	0.498872
	C4377	C	0.408688	0.285657	0.503540
	C4378	C	0.416708	0.285545	0.512714
	C4379	C	0.395894	0.374796	0.488956
	C4380	C	0.456283	0.374887	0.529843
	C4381	C	0.465291	0.374586	0.521430
	C4382	C	0.469612	0.285498	0.517566
	C4383	C	0.477977	0.285869	0.509810
	C4384	C	0.482250	0.374937	0.505830
	C4385	C	0.477945	0.463970	0.509759
	C4386	C	0.469569	0.463712	0.517475
	C4387	C	0.491259	0.374914	0.497427
	H4388	H	0.481284	0.216934	0.506856
	H4389	H	0.466399	0.216804	0.520664
	H4390	H	0.479153	0.283139	0.590303
	H4391	H	0.465136	0.283181	0.573647
	H4392	H	0.442885	0.125024	0.526613
	H4393	H	0.442190	0.374902	0.563129
	H4394	H	0.380509	0.375099	0.589156
	H4395	H	0.504686	0.125075	0.500505
	H4396	H	0.419854	0.216650	0.516215
	H4397	H	0.405611	0.216857	0.499930
	H4398	H	0.403854	0.283023	0.583046
	H4399	H	0.418754	0.282797	0.569314
	H4400	H	0.405546	0.532656	0.500005
	H4401	H	0.419763	0.532421	0.516354
	H4402	H	0.418833	-0.032666	0.569452
	H4403	H	0.403935	-0.032611	0.583138
	H4404	H	0.465165	-0.033138	0.573669
	H4405	H	0.479165	-0.032830	0.590353
	H4406	H	0.466325	0.532525	0.520508
	H4407	H	0.481206	0.532746	0.506738
	Al4408	Al	0.439227	-0.499966	0.681816
	Al4409	Al	0.439204	-0.250395	0.681753
	Al4410	Al	0.380067	-0.249980	0.607396
	Al4411	Al	0.380099	-0.500137	0.607411
	O4412	O	0.448840	-0.458675	0.695522
	O4413	O	0.439461	-0.375048	0.673071
	O4414	O	0.438987	-0.124891	0.690445
	O4415	O	0.488679	-0.458688	0.742358
	O4416	O	0.429033	-0.458999	0.693651
	O4417	O	0.386953	-0.459037	0.732301
	O4418	O	0.429022	-0.291078	0.693654
	O4419	O	0.429546	-0.209254	0.668062
	O4420	O	0.389760	-0.208770	0.621019
	O4421	O	0.448839	-0.290853	0.695457
	O4422	O	0.449429	-0.208886	0.669921
	O4423	O	0.491493	-0.208879	0.631097
	O4424	O	0.386902	-0.290977	0.732342
	O4425	O	0.429570	-0.041053	0.668033
	O4426	O	0.389720	-0.040749	0.621090
	O4427	O	0.491457	-0.041122	0.631046
	O4428	O	0.449410	-0.041091	0.669849
	O4429	O	0.488672	-0.290794	0.742381
	O4430	O	0.376924	-0.124994	0.735477
	O4431	O	0.501490	-0.374981	0.627896
	C4432	C	0.472773	-0.285574	0.723530
	C4433	C	0.476792	-0.374563	0.728379
	C4434	C	0.472678	-0.463407	0.723631
	C4435	C	0.464764	-0.463465	0.714280
	C4436	C	0.460734	-0.374488	0.709463
	C4437	C	0.464848	-0.285593	0.714184
	C4438	C	0.452202	-0.374636	0.699385
	C4439	C	0.485314	-0.374700	0.738483
	C4440	C	0.425481	-0.375197	0.696861
	C4441	C	0.416462	-0.375032	0.705225
	C4442	C	0.412194	-0.285994	0.709172
	C4443	C	0.403809	-0.285983	0.716910
	C4444	C	0.399496	-0.374807	0.720789
	C4445	C	0.403737	-0.463897	0.716780
	C4446	C	0.412117	-0.463833	0.709069
	C4447	C	0.390488	-0.374834	0.729167
	C4448	C	0.426173	-0.125055	0.664166
	C4449	C	0.417677	-0.125016	0.654026
	C4450	C	0.413646	-0.035976	0.649163
	C4451	C	0.405721	-0.035975	0.639844
	C4452	C	0.401639	-0.125077	0.635084
	C4453	C	0.405726	-0.214222	0.639848
	C4454	C	0.413636	-0.214105	0.649198
	C4455	C	0.393097	-0.124902	0.624982
	C4456	C	0.452977	-0.125002	0.666670
	C4457	C	0.462000	-0.125022	0.658339
	C4458	C	0.466262	-0.213748	0.654361
	C4459	C	0.474643	-0.213779	0.646660
	C4460	C	0.478945	-0.125194	0.642718
	C4461	C	0.474661	-0.036365	0.646634
	C4462	C	0.466273	-0.036310	0.654361
	C4463	C	0.487933	-0.125065	0.634305
	H4464	H	0.477890	-0.282615	0.643601
	H4465	H	0.463014	-0.282607	0.657323
	H4466	H	0.475876	-0.216481	0.727141
	H4467	H	0.461807	-0.216569	0.710497
	H4468	H	0.439777	-0.375132	0.663579
	H4469	H	0.438690	-0.124194	0.699983
	H4470	H	0.377036	-0.126077	0.725931
	H4471	H	0.501283	-0.375060	0.637479
	H4472	H	0.416676	-0.282991	0.652868
	H4473	H	0.402653	-0.283063	0.636197
	H4474	H	0.400594	-0.216985	0.720034
	H4475	H	0.415470	-0.217067	0.706223
	H4476	H	0.402662	0.033120	0.636182
	H4477	H	0.416711	0.032955	0.652831
	H4478	H	0.415328	-0.532795	0.706010
	H4479	H	0.400493	-0.533000	0.719760
	H4480	H	0.461663	-0.532323	0.710703
	H4481	H	0.475699	-0.532698	0.727313
	H4482	H	0.462997	0.032416	0.657339
	H4483	H	0.477851	0.032313	0.643566
	Al4484	Al	0.439202	0.000123	0.681748
	Al4485	Al	0.439206	0.249876	0.681741
	Al4486	Al	0.380066	0.249799	0.607401
	Al4487	Al	0.380063	-0.000200	0.607385
	O4488	O	0.448843	0.040849	0.695485
	O4489	O	0.439373	0.124925	0.673025
	O4490	O	0.439022	0.374997	0.690526
	O4491	O	0.488631	0.041052	0.742414
	O4492	O	0.428988	0.041166	0.693560
	O4493	O	0.386946	0.041014	0.732366
	O4494	O	0.429016	0.209254	0.693642
	O4495	O	0.429522	0.291121	0.668088
	O4496	O	0.389741	0.290811	0.621098
	O4497	O	0.448819	0.208666	0.695483
	O4498	O	0.449428	0.291119	0.669907
	O4499	O	0.491474	0.290935	0.631072
	O4500	O	0.386948	0.209126	0.732398
	O4501	O	0.429582	0.459257	0.668104
	O4502	O	0.389712	0.458912	0.621110
	O4503	O	0.491474	0.459144	0.631031
	O4504	O	0.449456	0.459211	0.669949
	O4505	O	0.488694	0.209126	0.742348
	O4506	O	0.376971	0.375195	0.735567
	O4507	O	0.501509	0.124962	0.627939
	C4508	C	0.472704	0.214084	0.723577
	C4509	C	0.476762	0.125101	0.728418
	C4510	C	0.472670	0.035907	0.723706
	C4511	C	0.464748	0.035640	0.714351
	C4512	C	0.460710	0.124763	0.709486
	C4513	C	0.464789	0.213859	0.714223
	C4514	C	0.452190	0.124797	0.699364
	C4515	C	0.485286	0.125094	0.738504
	C4516	C	0.425440	0.125034	0.696787
	C4517	C	0.416446	0.125005	0.705217
	C4518	C	0.412160	0.213858	0.709116
	C4519	C	0.403797	0.213998	0.716863
	C4520	C	0.399506	0.125197	0.720790
	C4521	C	0.403766	0.036345	0.716866
	C4522	C	0.412135	0.036139	0.709109
	C4523	C	0.390506	0.125073	0.729212
	C4524	C	0.426194	0.375402	0.664183
	C4525	C	0.417668	0.375361	0.654012
	C4526	C	0.413644	0.464396	0.649158
	C4527	C	0.405725	0.464555	0.639796
	C4528	C	0.401646	0.375364	0.635079
	C4529	C	0.405701	0.286464	0.639906
	C4530	C	0.413629	0.286316	0.649241
	C4531	C	0.393101	0.374998	0.624965
	C4532	C	0.453002	0.375002	0.666722
	C4533	C	0.462007	0.375159	0.658390
	C4534	C	0.466322	0.286158	0.654470
	C4535	C	0.474695	0.286084	0.646707
	C4536	C	0.478937	0.375151	0.642691
	C4537	C	0.474628	0.464096	0.646629
	C4538	C	0.466265	0.464066	0.654389
	C4539	C	0.487928	0.375180	0.634272
	H4540	H	0.477929	0.217476	0.643674
	H4541	H	0.463087	0.217212	0.657527
	H4542	H	0.475776	0.283283	0.727169
	H4543	H	0.461774	0.282805	0.710441
	H4544	H	0.439490	0.125003	0.663486
	H4545	H	0.438650	0.375047	0.700073
	H4546	H	0.377307	0.374566	0.726041
	H4547	H	0.501352	0.124819	0.637477
	H4548	H	0.416672	0.217190	0.652896
	H4549	H	0.402617	0.217581	0.636279
	H4550	H	0.400580	0.283197	0.719909
	H4551	H	0.415379	0.283201	0.706060
	H4552	H	0.402681	0.533550	0.636083
	H4553	H	0.416747	0.533339	0.652729
	H4554	H	0.415364	-0.032780	0.706015
	H4555	H	0.400485	-0.032751	0.719880
	H4556	H	0.461684	-0.033398	0.710717
	H4557	H	0.475722	-0.033084	0.727424
	H4558	H	0.463034	0.533134	0.657370
	H4559	H	0.477870	0.532783	0.643593
	Al4560	Al	0.435842	-0.499947	0.818603
	Al4561	Al	0.435819	-0.250032	0.818656
	Al4562	Al	0.376691	-0.249694	0.744232
	Al4563	Al	0.376713	-0.499613	0.744196
	O4564	O	0.445468	-0.458820	0.832327
	O4565	O	0.436047	-0.374705	0.809961
	O4566	O	0.435568	-0.124872	0.827274
	O4567	O	0.485341	-0.459099	0.879132
	O4568	O	0.425656	-0.458675	0.830485
	O4569	O	0.383515	-0.458748	0.869124
	O4570	O	0.425612	-0.290707	0.830494
	O4571	O	0.426149	-0.209001	0.804960
	O4572	O	0.386336	-0.209115	0.757923
	O4573	O	0.445498	-0.290548	0.832310
	O4574	O	0.446015	-0.208880	0.806681
	O4575	O	0.488127	-0.208961	0.768021
	O4576	O	0.383544	-0.290704	0.869211
	O4577	O	0.426170	-0.040615	0.804920
	O4578	O	0.386301	-0.040971	0.757941
	O4579	O	0.488149	-0.040818	0.767944
	O4580	O	0.445997	-0.040534	0.806589
	O4581	O	0.485346	-0.290950	0.879195
	O4582	O	0.373497	-0.124953	0.872272
	O4583	O	0.498105	-0.374819	0.764804
	C4584	C	0.469354	-0.285226	0.860468
	C4585	C	0.473442	-0.374471	0.865176
	C4586	C	0.469384	-0.463677	0.860390
	C4587	C	0.461464	-0.463673	0.851057
	C4588	C	0.457387	-0.374525	0.846304
	C4589	C	0.461434	-0.285345	0.851128
	C4590	C	0.448875	-0.374770	0.836180
	C4591	C	0.481978	-0.374903	0.875305
	C4592	C	0.422086	-0.374760	0.833671
	C4593	C	0.413045	-0.374879	0.841984
	C4594	C	0.408754	-0.286001	0.845938
	C4595	C	0.400385	-0.285865	0.853660
	C4596	C	0.396090	-0.374910	0.857568
	C4597	C	0.400385	-0.463811	0.853633
	C4598	C	0.408755	-0.463820	0.845907
	C4599	C	0.387100	-0.374665	0.865993
	C4600	C	0.422782	-0.125004	0.801059
	C4601	C	0.414258	-0.125016	0.790887
	C4602	C	0.410215	-0.036140	0.786081
	C4603	C	0.402303	-0.036080	0.776714
	C4604	C	0.398221	-0.124931	0.771955
	C4605	C	0.402275	-0.213766	0.776758
	C4606	C	0.410194	-0.213997	0.786138
	C4607	C	0.389688	-0.124992	0.761812
	C4608	C	0.449579	-0.124753	0.803486
	C4609	C	0.458598	-0.124709	0.795154
	C4610	C	0.462895	-0.214037	0.791211
	C4611	C	0.471282	-0.214053	0.783510
	C4612	C	0.475597	-0.124894	0.779637
	C4613	C	0.471291	-0.035410	0.783538
	C4614	C	0.462902	-0.035401	0.791243
	C4615	C	0.484588	-0.124704	0.771210
	H4616	H	0.474518	-0.282966	0.780481
	H4617	H	0.459654	-0.283241	0.794202
	H4618	H	0.472407	-0.216224	0.864175
	H4619	H	0.458349	-0.216288	0.847562
	H4620	H	0.436364	-0.374414	0.800375
	H4621	H	0.435169	-0.124254	0.836864
	H4622	H	0.373767	-0.125245	0.862660
	H4623	H	0.497934	-0.375089	0.774367
	H4624	H	0.413218	-0.283074	0.789819
	H4625	H	0.399215	-0.282814	0.773117
	H4626	H	0.397161	-0.216852	0.856742
	H4627	H	0.412041	-0.216915	0.842959
	H4628	H	0.399290	0.032804	0.773062
	H4629	H	0.413267	0.032887	0.789710
	H4630	H	0.412039	-0.532547	0.842951
	H4631	H	0.397165	-0.532878	0.856712
	H4632	H	0.458402	-0.533055	0.847411
	H4633	H	0.472461	-0.532764	0.864021
	H4634	H	0.459654	0.033567	0.794296
	H4635	H	0.474538	0.033831	0.780466
	Al4636	Al	0.435823	0.000061	0.818580
	Al4637	Al	0.435791	0.249881	0.818627
	Al4638	Al	0.376704	0.250324	0.744242
	Al4639	Al	0.376721	0.000328	0.744191
	O4640	O	0.445460	0.040975	0.832276
	O4641	O	0.436048	0.124987	0.809918
	O4642	O	0.435608	0.374935	0.827377
	O4643	O	0.485326	0.040951	0.879105
	O4644	O	0.425621	0.040931	0.830505
	O4645	O	0.383478	0.041073	0.869155
	O4646	O	0.425595	0.209285	0.830451
	O4647	O	0.426191	0.291645	0.804914
	O4648	O	0.386340	0.291081	0.758020
	O4649	O	0.445439	0.209021	0.832346
	O4650	O	0.446044	0.291094	0.806738
	O4651	O	0.488114	0.291166	0.767974
	O4652	O	0.383525	0.209204	0.869297
	O4653	O	0.426150	0.459634	0.804917
	O4654	O	0.386376	0.459402	0.757912
	O4655	O	0.488123	0.459067	0.767957
	O4656	O	0.446029	0.459229	0.806739
	O4657	O	0.485303	0.209214	0.879209
	O4658	O	0.373508	0.375013	0.872333
	O4659	O	0.498090	0.125281	0.764745
	C4660	C	0.469329	0.214180	0.860421
	C4661	C	0.473408	0.125252	0.865160
	C4662	C	0.469372	0.036136	0.860364
	C4663	C	0.461441	0.036018	0.851031
	C4664	C	0.457345	0.124957	0.846316
	C4665	C	0.461401	0.214173	0.851092
	C4666	C	0.448831	0.124869	0.836193
	C4667	C	0.481946	0.124964	0.875286
	C4668	C	0.422048	0.125069	0.833626
	C4669	C	0.413013	0.125053	0.842028
	C4670	C	0.408705	0.214174	0.845925
	C4671	C	0.400336	0.214245	0.853673
	C4672	C	0.396069	0.125158	0.857659
	C4673	C	0.400346	0.035985	0.853717
	C4674	C	0.408722	0.035838	0.845965
	C4675	C	0.387047	0.125245	0.866022
	C4676	C	0.422805	0.375492	0.801051
	C4677	C	0.414290	0.375449	0.790859
	C4678	C	0.410217	0.464479	0.786090
	C4679	C	0.402308	0.464269	0.776730
	C4680	C	0.398260	0.375317	0.771936
	C4681	C	0.402265	0.286230	0.776791
	C4682	C	0.410181	0.286505	0.786148
	C4683	C	0.389743	0.375183	0.761802
	C4684	C	0.449594	0.375062	0.803523
	C4685	C	0.458587	0.375382	0.795096
	C4686	C	0.462886	0.286357	0.791168
	C4687	C	0.471277	0.286253	0.783459
	C4688	C	0.475562	0.375257	0.779541
	C4689	C	0.471285	0.464205	0.783499
	C4690	C	0.462914	0.464422	0.791225
	C4691	C	0.484555	0.375093	0.771130
	H4692	H	0.474490	0.217330	0.780426
	H4693	H	0.459671	0.217839	0.794251
	H4694	H	0.472374	0.283203	0.864102
	H4695	H	0.458295	0.283059	0.847469
	H4696	H	0.436394	0.125085	0.800375
	H4697	H	0.435435	0.375587	0.836969
	H4698	H	0.373557	0.375108	0.862774
	H4699	H	0.497794	0.124943	0.774320
	H4700	H	0.413206	0.217392	0.789877
	H4701	H	0.399171	0.217297	0.773177
	H4702	H	0.397076	0.283413	0.856639
	H4703	H	0.411882	0.283254	0.842815
	H4704	H	0.399258	0.533078	0.773068
	H4705	H	0.413250	0.533428	0.789785
	H4706	H	0.411955	-0.033191	0.842923
	H4707	H	0.397086	-0.032898	0.856727
	H4708	H	0.458419	-0.032999	0.847336
	H4709	H	0.472470	-0.032990	0.863949
	H4710	H	0.459726	0.533278	0.794308
	H4711	H	0.474552	0.533016	0.780473
	Al4712	Al	0.432472	-0.499754	0.955282
	Al4713	Al	0.432478	-0.249925	0.955284
	Al4714	Al	0.373298	-0.249782	0.881018
	Al4715	Al	0.373318	-0.499720	0.881004
	O4716	O	0.442194	-0.458675	0.968887
	O4717	O	0.432697	-0.374717	0.946608
	O4718	O	0.432301	-0.124628	0.963985
	O4719	O	0.482572	-0.458578	1.014789
	O4720	O	0.422269	-0.458880	0.967124
	O4721	O	0.380128	-0.458888	1.005832
	O4722	O	0.422298	-0.290939	0.967194
	O4723	O	0.422819	-0.208790	0.941607
	O4724	O	0.382926	-0.208752	0.894731
	O4725	O	0.442177	-0.290581	0.968925
	O4726	O	0.442665	-0.209006	0.943352
	O4727	O	0.484799	-0.209190	0.904766
	O4728	O	0.380176	-0.290931	1.005851
	O4729	O	0.422852	-0.040687	0.941554
	O4730	O	0.382908	-0.040713	0.894707
	O4731	O	0.484851	-0.041050	0.904730
	O4732	O	0.442640	-0.040951	0.943310
	O4733	O	0.482567	-0.290716	1.014808
	O4734	O	0.370092	-0.124711	1.008967
	O4735	O	0.494874	-0.375038	0.901533
	C4736	C	0.466330	-0.285591	0.996524
	C4737	C	0.470461	-0.374731	1.001161
	C4738	C	0.466358	-0.463967	0.996474
	C4739	C	0.458333	-0.463944	0.987324
	C4740	C	0.454214	-0.374773	0.982654
	C4741	C	0.458311	-0.285620	0.987375
	C4742	C	0.445602	-0.374651	0.972688
	C4743	C	0.479136	-0.374831	1.011050
	C4744	C	0.418718	-0.374893	0.970320
	C4745	C	0.409699	-0.374786	0.978688
	C4746	C	0.405399	-0.285707	0.982612
	C4747	C	0.397006	-0.285777	0.990340
	C4748	C	0.392735	-0.375160	0.994284
	C4749	C	0.397043	-0.464219	0.990365
	C4750	C	0.405441	-0.464117	0.982637
	C4751	C	0.383712	-0.374901	1.002654
	C4752	C	0.419466	-0.124636	0.937711
	C4753	C	0.410890	-0.124894	0.927613
	C4754	C	0.406812	-0.035883	0.922854
	C4755	C	0.398856	-0.035811	0.913543
	C4756	C	0.394814	-0.124756	0.908731
	C4757	C	0.398886	-0.213807	0.913511
	C4758	C	0.406834	-0.213908	0.922833
	C4759	C	0.386301	-0.124648	0.898579
	C4760	C	0.446244	-0.124980	0.940193
	C4761	C	0.455240	-0.124651	0.931810
	C4762	C	0.459560	-0.213646	0.927895
	C4763	C	0.467962	-0.213638	0.920256
	C4764	C	0.472272	-0.124643	0.916323
	C4765	C	0.467922	-0.035581	0.920130
	C4766	C	0.459516	-0.035483	0.927800
	C4767	C	0.481281	-0.124906	0.907950
	H4768	H	0.471195	-0.282694	0.917272
	H4769	H	0.456372	-0.282566	0.931045
	H4770	H	0.469408	-0.216372	1.000113
	H4771	H	0.455208	-0.216658	0.983764
	H4772	H	0.433071	-0.375174	0.937004
	H4773	H	0.432318	-0.124440	0.973527
	H4774	H	0.370005	-0.123993	0.999397
	H4775	H	0.494649	-0.374891	0.911115
	H4776	H	0.409901	-0.282993	0.926455
	H4777	H	0.395853	-0.282936	0.909829
	H4778	H	0.393757	-0.216669	0.993341
	H4779	H	0.408630	-0.216342	0.979619
	H4780	H	0.395829	0.033220	0.909863
	H4781	H	0.409868	0.032855	0.926491
	H4782	H	0.408653	-0.533309	0.979570
	H4783	H	0.393795	-0.533366	0.993368
	H4784	H	0.455284	-0.532879	0.983670
	H4785	H	0.469475	-0.532768	1.000104
	H4786	H	0.456268	0.033643	0.930834
	H4787	H	0.471134	0.033390	0.916981
	Al4788	Al	0.432478	0.000438	0.955229
	Al4789	Al	0.432472	0.250311	0.955257
	Al4790	Al	0.373295	0.250125	0.881121
	Al4791	Al	0.373285	-0.000084	0.881009
	O4792	O	0.442163	0.041185	0.968873
	O4793	O	0.432678	0.125311	0.946555
	O4794	O	0.432352	0.375137	0.964013
	O4795	O	0.482542	0.041179	1.014856
	O4796	O	0.422249	0.041254	0.967086
	O4797	O	0.380150	0.041048	1.005873
	O4798	O	0.422275	0.209493	0.967182
	O4799	O	0.422816	0.291005	0.941624
	O4800	O	0.382909	0.291197	0.894817
	O4801	O	0.442122	0.209033	0.968980
	O4802	O	0.442716	0.290930	0.943433
	O4803	O	0.484827	0.291051	0.904735
	O4804	O	0.380185	0.209325	1.005850
	O4805	O	0.422861	0.459119	0.941621
	O4806	O	0.382960	0.459188	0.894702
	O4807	O	0.484814	0.459083	0.904637
	O4808	O	0.442644	0.458989	0.943294
	O4809	O	0.482528	0.209328	1.014881
	O4810	O	0.370117	0.374837	1.008990
	O4811	O	0.494861	0.125100	0.901478
	C4812	C	0.466341	0.214171	0.996510
	C4813	C	0.470498	0.125055	1.001105
	C4814	C	0.466369	0.035858	0.996440
	C4815	C	0.458339	0.036031	0.987293
	C4816	C	0.454212	0.125208	0.982652
	C4817	C	0.458310	0.214334	0.987383
	C4818	C	0.445567	0.125199	0.972709
	C4819	C	0.479106	0.125253	1.011077
	C4820	C	0.418708	0.125393	0.970317
	C4821	C	0.409696	0.125293	0.978718
	C4822	C	0.405410	0.214412	0.982678
	C4823	C	0.397030	0.214495	0.990403
	C4824	C	0.392747	0.125172	0.994348
	C4825	C	0.397063	0.035998	0.990451
	C4826	C	0.405428	0.036235	0.982725
	C4827	C	0.383743	0.125252	1.002691
	C4828	C	0.419439	0.375116	0.937760
	C4829	C	0.410921	0.375257	0.927648
	C4830	C	0.406842	0.463972	0.922882
	C4831	C	0.398897	0.464048	0.913538
	C4832	C	0.394825	0.375164	0.908793
	C4833	C	0.398936	0.286492	0.913471
	C4834	C	0.406887	0.286517	0.922801
	C4835	C	0.386295	0.375192	0.898659
	C4836	C	0.446240	0.375293	0.940164
	C4837	C	0.455241	0.375177	0.931788
	C4838	C	0.459611	0.286170	0.927967
	C4839	C	0.468003	0.286263	0.920249
	C4840	C	0.472243	0.375375	0.916233
	C4841	C	0.467904	0.464345	0.920125
	C4842	C	0.459526	0.464222	0.927856
	C4843	C	0.481253	0.375052	0.907850
	H4844	H	0.471300	0.217430	0.917299
	H4845	H	0.456421	0.217085	0.931049
	H4846	H	0.469412	0.283345	1.000144
	H4847	H	0.455173	0.283488	0.983855
	H4848	H	0.432972	0.124579	0.937002
	H4849	H	0.432101	0.375224	0.973615
	H4850	H	0.370309	0.375135	0.999427
	H4851	H	0.494637	0.125248	0.911071
	H4852	H	0.409956	0.217563	0.926439
	H4853	H	0.395908	0.217917	0.909769
	H4854	H	0.393788	0.283329	0.993453
	H4855	H	0.408661	0.283389	0.979609
	H4856	H	0.395859	0.532860	0.909848
	H4857	H	0.409858	0.532940	0.926520
	H4858	H	0.408707	-0.032697	0.979701
	H4859	H	0.393834	-0.033213	0.993500
	H4860	H	0.455219	-0.033059	0.983719
	H4861	H	0.469430	-0.033346	1.000065
	H4862	H	0.456251	0.533061	0.930814
	H4863	H	0.471103	0.533550	0.917039
	Al4864	Al	0.557302	-0.500315	0.091045
	Al4865	Al	0.557291	-0.249087	0.091049
	Al4866	Al	0.492454	-0.249806	0.028251
	Al4867	Al	0.492428	-0.499716	0.028214
	O4868	O	0.569029	-0.458878	0.100930
	O4869	O	0.556664	-0.374951	0.082138
	O4870	O	0.558295	-0.124893	0.099817
	O4871	O	0.618545	-0.459609	0.086734
	O4872	O	0.547857	-0.458976	0.104135
	O4873	O	0.504082	-0.458932	0.139788
	O4874	O	0.547868	-0.290905	0.104155
	O4875	O	0.546420	-0.208834	0.079638
	O4876	O	0.502520	-0.208637	0.041260
	O4877	O	0.569020	-0.290830	0.100809
	O4878	O	0.566538	-0.208743	0.077183
	O4879	O	0.610414	-0.208683	0.041757
	O4880	O	0.504051	-0.290878	0.139726
	O4881	O	0.546405	-0.040842	0.079663
	O4882	O	0.502470	-0.040706	0.041291
	O4883	O	0.610441	-0.040581	0.041718
	O4884	O	0.566569	-0.040822	0.077338
	O4885	O	0.618557	-0.291342	0.086707
	O4886	O	0.494130	-0.124960	0.144554
	O4887	O	0.620801	-0.374636	0.037326
	C4888	C	0.598637	-0.285107	0.091989
	C4889	C	0.603624	-0.375042	0.090180
	C4890	C	0.598644	-0.464776	0.091963
	C4891	C	0.588941	-0.464737	0.095517
	C4892	C	0.583949	-0.374859	0.097349
	C4893	C	0.588944	-0.285174	0.095556
	C4894	C	0.573283	-0.374786	0.100016
	C4895	C	0.614299	-0.375426	0.087609
	C4896	C	0.544139	-0.374921	0.107028
	C4897	C	0.534729	-0.374886	0.114624
	C4898	C	0.530180	-0.285251	0.118038
	C4899	C	0.521407	-0.285339	0.124896
	C4900	C	0.516881	-0.374796	0.128488
	C4901	C	0.521394	-0.464349	0.124905
	C4902	C	0.530176	-0.464339	0.118078
	C4903	C	0.507660	-0.374704	0.136587
	C4904	C	0.542658	-0.124790	0.076580
	C4905	C	0.533191	-0.124555	0.068468
	C4906	C	0.528709	-0.035555	0.064588
	C4907	C	0.519970	-0.035697	0.056959
	C4908	C	0.515502	-0.124506	0.053039
	C4909	C	0.519969	-0.213480	0.056966
	C4910	C	0.528699	-0.213300	0.064595
	C4911	C	0.506152	-0.124540	0.044551
	C4912	C	0.570167	-0.124878	0.074073
	C4913	C	0.579428	-0.124611	0.066068
	C4914	C	0.583946	-0.214161	0.062454
	C4915	C	0.592744	-0.213960	0.055721
	C4916	C	0.597323	-0.124287	0.052298
	C4917	C	0.592749	-0.034747	0.055756
	C4918	C	0.583952	-0.034964	0.062490
	C4919	C	0.606725	-0.124531	0.044706
	H4920	H	0.596144	-0.283606	0.053079
	H4921	H	0.580510	-0.283779	0.065078
	H4922	H	0.602367	-0.215131	0.090582
	H4923	H	0.585207	-0.215285	0.096926
	H4924	H	0.556033	-0.374806	0.072541
	H4925	H	0.559735	-0.124985	0.109245
	H4926	H	0.493387	-0.125243	0.134976
	H4927	H	0.622214	-0.374079	0.046730
	H4928	H	0.532065	-0.282394	0.067564
	H4929	H	0.516568	-0.282245	0.054015
	H4930	H	0.518018	-0.215451	0.127510
	H4931	H	0.533544	-0.215879	0.115309
	H4932	H	0.516585	0.032938	0.053994
	H4933	H	0.532079	0.033244	0.067600
	H4934	H	0.533553	-0.534089	0.115370
	H4935	H	0.517984	-0.534121	0.127489
	H4936	H	0.585189	-0.534784	0.096848
	H4937	H	0.602375	-0.534509	0.090499
	H4938	H	0.580574	0.034867	0.065105
	H4939	H	0.596193	0.034832	0.053124
	Al4940	Al	0.557327	-0.000374	0.091059
	Al4941	Al	0.557286	0.250618	0.091018
	Al4942	Al	0.492406	0.250437	0.028192
	Al4943	Al	0.492417	0.000380	0.028204
	O4944	O	0.569058	0.041269	0.100937
	O4945	O	0.556676	0.125135	0.082202
	O4946	O	0.558354	0.374978	0.099780
	O4947	O	0.618556	0.040838	0.086602
	O4948	O	0.547884	0.041376	0.104155
	O4949	O	0.504022	0.041257	0.139744
	O4950	O	0.547922	0.209439	0.104259
	O4951	O	0.546386	0.290807	0.079632
	O4952	O	0.502502	0.290746	0.041206
	O4953	O	0.569040	0.209239	0.100812
	O4954	O	0.566525	0.291315	0.077132
	O4955	O	0.610467	0.291233	0.041762
	O4956	O	0.504007	0.209315	0.139578
	O4957	O	0.546444	0.458894	0.079616
	O4958	O	0.502466	0.458925	0.041337
	O4959	O	0.610425	0.459345	0.041759
	O4960	O	0.566594	0.459380	0.077301
	O4961	O	0.618573	0.209057	0.086628
	O4962	O	0.494116	0.375531	0.144645
	O4963	O	0.620800	0.125018	0.037270
	C4964	C	0.598677	0.214910	0.092027
	C4965	C	0.603629	0.125072	0.090127
	C4966	C	0.598636	0.035469	0.091977
	C4967	C	0.588938	0.035486	0.095579
	C4968	C	0.583966	0.125325	0.097370
	C4969	C	0.588966	0.215103	0.095625
	C4970	C	0.573311	0.125326	0.100005
	C4971	C	0.614303	0.125017	0.087545
	C4972	C	0.544174	0.125407	0.107097
	C4973	C	0.534734	0.125084	0.114648
	C4974	C	0.530201	0.214566	0.118119
	C4975	C	0.521385	0.214575	0.124892
	C4976	C	0.516855	0.124916	0.128379
	C4977	C	0.521345	0.035354	0.124823
	C4978	C	0.530163	0.035455	0.118038
	C4979	C	0.507622	0.125133	0.136484
	C4980	C	0.542677	0.374822	0.076556
	C4981	C	0.533191	0.374771	0.068472
	C4982	C	0.528691	0.463808	0.064654
	C4983	C	0.519928	0.464047	0.057037
	C4984	C	0.515458	0.375111	0.053081
	C4985	C	0.519922	0.286066	0.056990
	C4986	C	0.528673	0.285807	0.064628
	C4987	C	0.506154	0.374837	0.044515
	C4988	C	0.570195	0.375449	0.074083
	C4989	C	0.579428	0.375584	0.065990
	C4990	C	0.583961	0.285911	0.062453
	C4991	C	0.592774	0.285857	0.055691
	C4992	C	0.597321	0.375381	0.052253
	C4993	C	0.592764	0.465141	0.055643
	C4994	C	0.583936	0.465181	0.062408
	C4995	C	0.606738	0.375287	0.044684
	H4996	H	0.596165	0.215779	0.053049
	H4997	H	0.580598	0.215878	0.065071
	H4998	H	0.602422	0.285066	0.090613
	H4999	H	0.585260	0.285457	0.097012
	H5000	H	0.555806	0.124806	0.072661
	H5001	H	0.560014	0.374971	0.109016
	H5002	H	0.493459	0.375792	0.135037
	H5003	H	0.622277	0.125264	0.046707
	H5004	H	0.532081	0.217032	0.067558
	H5005	H	0.516545	0.217311	0.053985
	H5006	H	0.518026	0.284441	0.127576
	H5007	H	0.533593	0.284399	0.115528
	H5008	H	0.516570	0.532585	0.054061
	H5009	H	0.532085	0.532387	0.067626
	H5010	H	0.533548	-0.034302	0.115360
	H5011	H	0.517993	-0.034701	0.127460
	H5012	H	0.585203	-0.034600	0.096903
	H5013	H	0.602347	-0.034630	0.090523
	H5014	H	0.580530	0.535294	0.065010
	H5015	H	0.596119	0.535151	0.052984
	Al5016	Al	0.567708	-0.499992	0.158873
	Al5017	Al	0.567780	-0.250823	0.158859
	Al5018	Al	0.494759	-0.250334	0.153472
	Al5019	Al	0.494814	-0.499140	0.153535
	O5020	O	0.578648	-0.459444	0.170206
	O5021	O	0.566745	-0.375195	0.150085
	O5022	O	0.568398	-0.125302	0.167803
	O5023	O	0.622514	-0.459051	0.208805
	O5024	O	0.558510	-0.458250	0.172644
	O5025	O	0.514623	-0.459057	0.208283
	O5026	O	0.558455	-0.290405	0.172651
	O5027	O	0.556027	-0.208985	0.149032
	O5028	O	0.506505	-0.209090	0.163316
	O5029	O	0.578651	-0.291448	0.170258
	O5030	O	0.577189	-0.209384	0.145683
	O5031	O	0.621000	-0.209535	0.110231
	O5032	O	0.514634	-0.290946	0.208202
	O5033	O	0.556027	-0.040568	0.149152
	O5034	O	0.506495	-0.040882	0.163279
	O5035	O	0.621087	-0.041264	0.110269
	O5036	O	0.577263	-0.041049	0.145926
	O5037	O	0.622512	-0.291029	0.208782
	O5038	O	0.504293	-0.125265	0.212661
	O5039	O	0.630885	-0.375005	0.105438
	C5040	C	0.605088	-0.286292	0.192984
	C5041	C	0.609527	-0.375159	0.197006
	C5042	C	0.605039	-0.464103	0.193148
	C5043	C	0.596315	-0.464238	0.185479
	C5044	C	0.591832	-0.375528	0.181549
	C5045	C	0.596350	-0.286476	0.185313
	C5046	C	0.582372	-0.375629	0.173353
	C5047	C	0.618845	-0.375152	0.205548
	C5048	C	0.554891	-0.374558	0.175832
	C5049	C	0.545664	-0.374714	0.183972
	C5050	C	0.541103	-0.285179	0.187470
	C5051	C	0.532309	-0.285218	0.194300
	C5052	C	0.527784	-0.374801	0.197787
	C5053	C	0.532365	-0.464158	0.194392
	C5054	C	0.541163	-0.464117	0.187580
	C5055	C	0.518342	-0.375168	0.205363
	C5056	C	0.551798	-0.124846	0.149993
	C5057	C	0.541117	-0.124846	0.152615
	C5058	C	0.536144	-0.034788	0.154382
	C5059	C	0.526440	-0.034705	0.157986
	C5060	C	0.521442	-0.124707	0.159827
	C5061	C	0.526431	-0.214667	0.158127
	C5062	C	0.536127	-0.214738	0.154540
	C5063	C	0.510743	-0.124920	0.162437
	C5064	C	0.580950	-0.125171	0.142913
	C5065	C	0.590363	-0.124920	0.135309
	C5066	C	0.594893	-0.214695	0.131804
	C5067	C	0.603652	-0.214735	0.124995
	C5068	C	0.608200	-0.125082	0.121492
	C5069	C	0.603705	-0.035385	0.125113
	C5070	C	0.594943	-0.035314	0.131936
	C5071	C	0.617449	-0.125312	0.113460
	H5072	H	0.607028	-0.284651	0.122291
	H5073	H	0.591474	-0.284552	0.134410
	H5074	H	0.608495	-0.217642	0.195905
	H5075	H	0.592988	-0.217807	0.182242
	H5076	H	0.565274	-0.375122	0.140723
	H5077	H	0.569119	-0.125488	0.177410
	H5078	H	0.502788	-0.125469	0.203269
	H5079	H	0.631372	-0.374822	0.115104
	H5080	H	0.539829	-0.284955	0.153166
	H5081	H	0.522665	-0.284593	0.159556
	H5082	H	0.528870	-0.215734	0.196867
	H5083	H	0.544430	-0.215253	0.184787
	H5084	H	0.522708	0.035311	0.159313
	H5085	H	0.539910	0.034991	0.152849
	H5086	H	0.544547	-0.533997	0.184933
	H5087	H	0.529012	-0.533829	0.197042
	H5088	H	0.592945	-0.533279	0.182555
	H5089	H	0.608380	-0.533185	0.196225
	H5090	H	0.591535	0.034436	0.134653
	H5091	H	0.607108	0.034439	0.122516
	Al5092	Al	0.567768	0.000145	0.158969
	Al5093	Al	0.567769	0.249095	0.158942
	Al5094	Al	0.494744	0.249823	0.153447
	Al5095	Al	0.494786	0.000694	0.153438
	O5096	O	0.578635	0.041112	0.170382
	O5097	O	0.566805	0.124449	0.150227
	O5098	O	0.568348	0.374754	0.167765
	O5099	O	0.622568	0.040845	0.208720
	O5100	O	0.558496	0.040936	0.172719
	O5101	O	0.514657	0.040771	0.208229
	O5102	O	0.558554	0.208937	0.172791
	O5103	O	0.555980	0.290638	0.149152
	O5104	O	0.506472	0.290562	0.163274
	O5105	O	0.578685	0.209142	0.170384
	O5106	O	0.577134	0.290638	0.145762
	O5107	O	0.621010	0.290405	0.110324
	O5108	O	0.514618	0.208762	0.208201
	O5109	O	0.555980	0.458775	0.149096
	O5110	O	0.506464	0.458679	0.163376
	O5111	O	0.621001	0.458655	0.110321
	O5112	O	0.577081	0.458752	0.145605
	O5113	O	0.622617	0.209042	0.208732
	O5114	O	0.504220	0.374631	0.212723
	O5115	O	0.630925	0.124950	0.105365
	C5116	C	0.605106	0.214242	0.193051
	C5117	C	0.609602	0.125169	0.196969
	C5118	C	0.605112	0.035989	0.193079
	C5119	C	0.596377	0.035993	0.185440
	C5120	C	0.591880	0.125133	0.181570
	C5121	C	0.596375	0.214271	0.185420
	C5122	C	0.582417	0.124936	0.173440
	C5123	C	0.618943	0.125087	0.205453
	C5124	C	0.554919	0.124942	0.175925
	C5125	C	0.545680	0.125066	0.183959
	C5126	C	0.541101	0.214684	0.187450
	C5127	C	0.532289	0.214879	0.194201
	C5128	C	0.527748	0.125230	0.197699
	C5129	C	0.532371	0.035595	0.194356
	C5130	C	0.541165	0.035436	0.187582
	C5131	C	0.518365	0.124861	0.205280
	C5132	C	0.551732	0.374710	0.149954
	C5133	C	0.541080	0.374754	0.152568
	C5134	C	0.536102	0.464831	0.154296
	C5135	C	0.526405	0.464819	0.157886
	C5136	C	0.521412	0.374898	0.159779
	C5137	C	0.526408	0.285048	0.158069
	C5138	C	0.536110	0.285049	0.154472
	C5139	C	0.510738	0.374688	0.162423
	C5140	C	0.580835	0.374745	0.142781
	C5141	C	0.590277	0.374574	0.135262
	C5142	C	0.594814	0.284958	0.131812
	C5143	C	0.603610	0.284852	0.125059
	C5144	C	0.608123	0.374459	0.121523
	C5145	C	0.603647	0.464018	0.125143
	C5146	C	0.594860	0.464174	0.131905
	C5147	C	0.617391	0.374500	0.113503
	H5148	H	0.607001	0.214854	0.122462
	H5149	H	0.591393	0.215431	0.134431
	H5150	H	0.608481	0.283151	0.196023
	H5151	H	0.593003	0.283470	0.182358
	H5152	H	0.565392	0.124431	0.140782
	H5153	H	0.569069	0.374548	0.177411
	H5154	H	0.502676	0.374789	0.203423
	H5155	H	0.631650	0.124487	0.114967
	H5156	H	0.539874	0.215190	0.153136
	H5157	H	0.522690	0.214976	0.159598
	H5158	H	0.528875	0.284300	0.196810
	H5159	H	0.544503	0.284442	0.184774
	H5160	H	0.522652	0.534808	0.159287
	H5161	H	0.539819	0.534923	0.152856
	H5162	H	0.544580	-0.034450	0.185023
	H5163	H	0.528999	-0.033806	0.197137
	H5164	H	0.592992	-0.032934	0.182427
	H5165	H	0.608484	-0.032756	0.196105
	H5166	H	0.591481	0.534038	0.134554
	H5167	H	0.607087	0.533771	0.122567
	Al5168	Al	0.570086	-0.500004	0.284290
	Al5169	Al	0.570082	-0.249996	0.284245
	Al5170	Al	0.505256	-0.249516	0.221440
	Al5171	Al	0.505232	-0.500953	0.221444
	O5172	O	0.579958	-0.459005	0.297612
	O5173	O	0.570120	-0.375046	0.275562
	O5174	O	0.570053	-0.125191	0.293018
	O5175	O	0.620358	-0.459389	0.343592
	O5176	O	0.560015	-0.458996	0.296436
	O5177	O	0.517673	-0.459256	0.334690
	O5178	O	0.559978	-0.290996	0.296390
	O5179	O	0.560001	-0.209039	0.271196
	O5180	O	0.516135	-0.209328	0.232826
	O5181	O	0.579994	-0.291085	0.297617
	O5182	O	0.580142	-0.209166	0.272073
	O5183	O	0.622505	-0.208954	0.233893
	O5184	O	0.517625	-0.291301	0.334679
	O5185	O	0.560017	-0.040947	0.271189
	O5186	O	0.516080	-0.041434	0.232844
	O5187	O	0.622545	-0.041038	0.233940
	O5188	O	0.580175	-0.040938	0.272169
	O5189	O	0.620330	-0.291002	0.343677
	O5190	O	0.507572	-0.125032	0.338052
	O5191	O	0.632514	-0.375220	0.230539
	C5192	C	0.604198	-0.285926	0.325174
	C5193	C	0.608298	-0.374828	0.329892
	C5194	C	0.604158	-0.463811	0.325290
	C5195	C	0.596144	-0.463820	0.316086
	C5196	C	0.592043	-0.374964	0.311359
	C5197	C	0.596183	-0.285863	0.315960
	C5198	C	0.583401	-0.375047	0.301400
	C5199	C	0.616909	-0.375054	0.339845
	C5200	C	0.556416	-0.374899	0.299547
	C5201	C	0.547333	-0.374968	0.307760
	C5202	C	0.542974	-0.286057	0.311568
	C5203	C	0.534540	-0.286321	0.319193
	C5204	C	0.530248	-0.375207	0.323148
	C5205	C	0.534605	-0.464156	0.319324
	C5206	C	0.543036	-0.463900	0.311682
	C5207	C	0.521235	-0.375039	0.331504
	C5208	C	0.556336	-0.124903	0.267953
	C5209	C	0.547019	-0.124849	0.259442
	C5210	C	0.542512	-0.035812	0.255581
	C5211	C	0.533772	-0.035793	0.247962
	C5212	C	0.529320	-0.124953	0.244068
	C5213	C	0.533859	-0.213973	0.247823
	C5214	C	0.542606	-0.213914	0.255431
	C5215	C	0.519856	-0.125233	0.235916
	C5216	C	0.583778	-0.125017	0.269023
	C5217	C	0.592787	-0.125113	0.260716
	C5218	C	0.597082	-0.213991	0.256754
	C5219	C	0.605521	-0.213938	0.249171
	C5220	C	0.609891	-0.125004	0.245373
	C5221	C	0.605570	-0.036133	0.249275
	C5222	C	0.597138	-0.036158	0.256876
	C5223	C	0.618951	-0.124949	0.237085
	H5224	H	0.608781	-0.282681	0.246117
	H5225	H	0.593826	-0.282685	0.259744
	H5226	H	0.607309	-0.217152	0.328696
	H5227	H	0.593106	-0.217007	0.312363
	H5228	H	0.570152	-0.375917	0.265977
	H5229	H	0.569955	-0.124932	0.302596
	H5230	H	0.507398	-0.125217	0.328519
	H5231	H	0.632351	-0.375519	0.240118
	H5232	H	0.546026	-0.283009	0.258313
	H5233	H	0.530515	-0.283176	0.244785
	H5234	H	0.531272	-0.217403	0.322164
	H5235	H	0.546208	-0.216832	0.308609
	H5236	H	0.530384	0.033147	0.245007
	H5237	H	0.545890	0.033172	0.258614
	H5238	H	0.546371	-0.532751	0.308770
	H5239	H	0.531375	-0.533328	0.322331
	H5240	H	0.593013	-0.532714	0.312543
	H5241	H	0.607258	-0.533066	0.328901
	H5242	H	0.593906	0.032675	0.259947
	H5243	H	0.608866	0.032827	0.246348
	Al5244	Al	0.570099	-0.000081	0.284275
	Al5245	Al	0.570076	0.249769	0.284279
	Al5246	Al	0.505258	0.250483	0.221463
	Al5247	Al	0.505196	-0.000548	0.221400
	O5248	O	0.579969	0.041006	0.297661
	O5249	O	0.570122	0.124767	0.275568
	O5250	O	0.570090	0.374774	0.293047
	O5251	O	0.620327	0.040528	0.343653
	O5252	O	0.560011	0.040610	0.296463
	O5253	O	0.517614	0.040457	0.334556
	O5254	O	0.560002	0.208836	0.296385
	O5255	O	0.560040	0.290804	0.271215
	O5256	O	0.516149	0.290468	0.232799
	O5257	O	0.579983	0.208872	0.297642
	O5258	O	0.580126	0.290597	0.272122
	O5259	O	0.622592	0.290724	0.233972
	O5260	O	0.517590	0.208603	0.334654
	O5261	O	0.560034	0.458822	0.271205
	O5262	O	0.516089	0.458602	0.232866
	O5263	O	0.622505	0.458825	0.233904
	O5264	O	0.580172	0.458871	0.272159
	O5265	O	0.620349	0.208450	0.343628
	O5266	O	0.507601	0.374924	0.338035
	O5267	O	0.632623	0.124897	0.230531
	C5268	C	0.604162	0.213778	0.325258
	C5269	C	0.608303	0.124677	0.329884
	C5270	C	0.604158	0.035823	0.325227
	C5271	C	0.596146	0.035846	0.316091
	C5272	C	0.592050	0.124802	0.311380
	C5273	C	0.596147	0.213759	0.316098
	C5274	C	0.583413	0.124901	0.301415
	C5275	C	0.616925	0.124647	0.339834
	C5276	C	0.556423	0.124985	0.299562
	C5277	C	0.547355	0.125003	0.307827
	C5278	C	0.542946	0.214076	0.311516
	C5279	C	0.534473	0.214224	0.319096
	C5280	C	0.530231	0.125046	0.323113
	C5281	C	0.534645	0.036133	0.319402
	C5282	C	0.543101	0.035986	0.311833
	C5283	C	0.521154	0.124827	0.331414
	C5284	C	0.556383	0.374693	0.267962
	C5285	C	0.547020	0.375143	0.259472
	C5286	C	0.542499	0.464164	0.255656
	C5287	C	0.533748	0.463749	0.248044
	C5288	C	0.529311	0.374565	0.244110
	C5289	C	0.533848	0.285636	0.247860
	C5290	C	0.542603	0.285968	0.255466
	C5291	C	0.519855	0.374715	0.235948
	C5292	C	0.583707	0.374672	0.268940
	C5293	C	0.592754	0.374569	0.260638
	C5294	C	0.597068	0.285372	0.256725
	C5295	C	0.605523	0.285352	0.249136
	C5296	C	0.609872	0.374427	0.245296
	C5297	C	0.605534	0.463638	0.249151
	C5298	C	0.597085	0.463676	0.256742
	C5299	C	0.618949	0.374681	0.237034
	H5300	H	0.608759	0.216105	0.246045
	H5301	H	0.593753	0.216275	0.259667
	H5302	H	0.607254	0.282645	0.328874
	H5303	H	0.593028	0.282709	0.312519
	H5304	H	0.570070	0.124349	0.265994
	H5305	H	0.570089	0.374876	0.302630
	H5306	H	0.507531	0.375115	0.328428
	H5307	H	0.632487	0.124743	0.240082
	H5308	H	0.546044	0.216917	0.258377
	H5309	H	0.530522	0.216378	0.244820
	H5310	H	0.531130	0.282968	0.321920
	H5311	H	0.546139	0.283103	0.308394
	H5312	H	0.530321	0.532722	0.245157
	H5313	H	0.545831	0.533315	0.258702
	H5314	H	0.546387	-0.033164	0.308987
	H5315	H	0.531420	-0.032902	0.322450
	H5316	H	0.593035	-0.033101	0.312520
	H5317	H	0.607219	-0.033037	0.328838
	H5318	H	0.593810	0.532544	0.259645
	H5319	H	0.608785	0.532826	0.246085
	Al5320	Al	0.567494	-0.500132	0.419733
	Al5321	Al	0.567511	-0.250222	0.419754
	Al5322	Al	0.507572	-0.249933	0.346771
	Al5323	Al	0.507549	-0.500082	0.346778
	O5324	O	0.577211	-0.459312	0.433397
	O5325	O	0.567660	-0.375161	0.411018
	O5326	O	0.567295	-0.125149	0.428436
	O5327	O	0.616977	-0.458838	0.480343
	O5328	O	0.557294	-0.459232	0.431575
	O5329	O	0.515254	-0.459131	0.470383
	O5330	O	0.557272	-0.290964	0.431593
	O5331	O	0.557773	-0.209049	0.406132
	O5332	O	0.517394	-0.208683	0.360180
	O5333	O	0.577095	-0.291085	0.433518
	O5334	O	0.577694	-0.208987	0.407875
	O5335	O	0.619817	-0.209035	0.369153
	O5336	O	0.515259	-0.290912	0.470459
	O5337	O	0.557799	-0.040806	0.406077
	O5338	O	0.517410	-0.040738	0.360187
	O5339	O	0.619860	-0.040661	0.369199
	O5340	O	0.577702	-0.040782	0.407809
	O5341	O	0.616938	-0.290620	0.480529
	O5342	O	0.505201	-0.125030	0.473631
	O5343	O	0.629856	-0.375318	0.366004
	C5344	C	0.600991	-0.285564	0.461611
	C5345	C	0.605094	-0.374584	0.466368
	C5346	C	0.601066	-0.463717	0.461548
	C5347	C	0.593171	-0.463562	0.452171
	C5348	C	0.589062	-0.374595	0.447417
	C5349	C	0.593088	-0.285490	0.452232
	C5350	C	0.580555	-0.375109	0.437310
	C5351	C	0.613591	-0.374741	0.476562
	C5352	C	0.553722	-0.375133	0.434738
	C5353	C	0.544699	-0.374801	0.443145
	C5354	C	0.540429	-0.285648	0.447109
	C5355	C	0.532063	-0.285694	0.454850
	C5356	C	0.527781	-0.374706	0.458795
	C5357	C	0.532087	-0.463783	0.454876
	C5358	C	0.540445	-0.463698	0.447148
	C5359	C	0.518798	-0.374920	0.467243
	C5360	C	0.554390	-0.124865	0.402297
	C5361	C	0.545767	-0.125187	0.392310
	C5362	C	0.541619	-0.035915	0.387702
	C5363	C	0.533582	-0.035629	0.378568
	C5364	C	0.529491	-0.124599	0.373842
	C5365	C	0.533604	-0.213890	0.378510
	C5366	C	0.541647	-0.214127	0.387633
	C5367	C	0.520820	-0.124817	0.363945
	C5368	C	0.581254	-0.125094	0.404666
	C5369	C	0.590281	-0.125085	0.396279
	C5370	C	0.594574	-0.214221	0.392369
	C5371	C	0.602988	-0.214192	0.384689
	C5372	C	0.607281	-0.125032	0.380772
	C5373	C	0.602948	-0.035973	0.384607
	C5374	C	0.594556	-0.035945	0.392310
	C5375	C	0.616289	-0.125003	0.372353
	H5376	H	0.606223	-0.282930	0.381618
	H5377	H	0.591312	-0.283125	0.395370
	H5378	H	0.604020	-0.216666	0.465342
	H5379	H	0.590008	-0.216292	0.448594
	H5380	H	0.567850	-0.375585	0.401432
	H5381	H	0.567075	-0.125117	0.437978
	H5382	H	0.505361	-0.125065	0.464083
	H5383	H	0.629744	-0.375479	0.375585
	H5384	H	0.544751	-0.283129	0.391199
	H5385	H	0.530473	-0.282718	0.374977
	H5386	H	0.528816	-0.216862	0.457939
	H5387	H	0.543672	-0.216873	0.444054
	H5388	H	0.530435	0.033427	0.375088
	H5389	H	0.544697	0.032968	0.391314
	H5390	H	0.543700	-0.532225	0.444087
	H5391	H	0.528897	-0.532783	0.457962
	H5392	H	0.590155	-0.532612	0.448448
	H5393	H	0.604127	-0.532752	0.465191
	H5394	H	0.591289	0.032692	0.395282
	H5395	H	0.606149	0.032978	0.381522
	Al5396	Al	0.567517	-0.000297	0.419731
	Al5397	Al	0.567497	0.249688	0.419799
	Al5398	Al	0.507524	0.250120	0.346807
	Al5399	Al	0.507560	0.000014	0.346750
	O5400	O	0.577186	0.040670	0.433381
	O5401	O	0.567661	0.124798	0.411076
	O5402	O	0.567336	0.374967	0.428485
	O5403	O	0.617008	0.040618	0.480342
	O5404	O	0.557274	0.040521	0.431629
	O5405	O	0.515262	0.040663	0.470390
	O5406	O	0.557336	0.208885	0.431684
	O5407	O	0.557810	0.291081	0.406115
	O5408	O	0.517395	0.290731	0.360206
	O5409	O	0.577143	0.208870	0.433488
	O5410	O	0.577712	0.290733	0.407919
	O5411	O	0.619821	0.291027	0.369133
	O5412	O	0.515234	0.208901	0.470452
	O5413	O	0.557815	0.458943	0.406076
	O5414	O	0.517403	0.458721	0.360205
	O5415	O	0.619849	0.458799	0.369173
	O5416	O	0.577700	0.458742	0.407814
	O5417	O	0.616997	0.208656	0.480407
	O5418	O	0.505184	0.375057	0.473649
	O5419	O	0.629843	0.124718	0.366035
	C5420	C	0.600974	0.213821	0.461695
	C5421	C	0.605097	0.124861	0.466386
	C5422	C	0.601091	0.035916	0.461548
	C5423	C	0.593183	0.035823	0.452169
	C5424	C	0.589055	0.124736	0.447454
	C5425	C	0.593062	0.213752	0.452316
	C5426	C	0.580556	0.124755	0.437315
	C5427	C	0.613621	0.124782	0.476522
	C5428	C	0.553735	0.124604	0.434795
	C5429	C	0.544717	0.124950	0.443170
	C5430	C	0.540416	0.213863	0.447037
	C5431	C	0.532063	0.213977	0.454802
	C5432	C	0.527783	0.124999	0.458789
	C5433	C	0.532073	0.035972	0.454912
	C5434	C	0.540446	0.035949	0.447164
	C5435	C	0.518792	0.125070	0.467252
	C5436	C	0.554405	0.374966	0.402295
	C5437	C	0.545771	0.374836	0.392342
	C5438	C	0.541687	0.463912	0.387599
	C5439	C	0.533640	0.463852	0.378470
	C5440	C	0.529479	0.374660	0.373881
	C5441	C	0.533635	0.285731	0.378463
	C5442	C	0.541669	0.285757	0.387608
	C5443	C	0.520818	0.374794	0.364018
	C5444	C	0.581270	0.374510	0.404668
	C5445	C	0.590282	0.374535	0.396303
	C5446	C	0.594594	0.285622	0.392391
	C5447	C	0.602990	0.285865	0.384675
	C5448	C	0.607267	0.374800	0.380725
	C5449	C	0.602961	0.463696	0.384649
	C5450	C	0.594566	0.463660	0.392373
	C5451	C	0.616272	0.375117	0.372336
	H5452	H	0.606241	0.216994	0.381657
	H5453	H	0.591351	0.216631	0.395386
	H5454	H	0.603996	0.282801	0.465408
	H5455	H	0.589975	0.282667	0.448706
	H5456	H	0.567856	0.124728	0.401490
	H5457	H	0.567149	0.374977	0.438077
	H5458	H	0.505497	0.374873	0.464074
	H5459	H	0.629638	0.124561	0.375553
	H5460	H	0.544804	0.216709	0.391077
	H5461	H	0.530548	0.216867	0.374867
	H5462	H	0.528798	0.282788	0.457782
	H5463	H	0.543667	0.282792	0.444019
	H5464	H	0.530547	0.532839	0.374892
	H5465	H	0.544816	0.532639	0.391103
	H5466	H	0.543731	-0.032990	0.444204
	H5467	H	0.528857	-0.032855	0.457971
	H5468	H	0.590190	-0.033298	0.448467
	H5469	H	0.604196	-0.033040	0.465185
	H5470	H	0.591301	0.532390	0.395400
	H5471	H	0.606191	0.532401	0.381660
	Al5472	Al	0.564158	-0.500053	0.556533
	Al5473	Al	0.564160	-0.250185	0.556612
	Al5474	Al	0.505012	-0.249995	0.482331
	Al5475	Al	0.505017	-0.499897	0.482276
	O5476	O	0.573819	-0.459253	0.570289
	O5477	O	0.564310	-0.374724	0.547880
	O5478	O	0.563973	-0.125305	0.565311
	O5479	O	0.613569	-0.459133	0.617290
	O5480	O	0.553951	-0.458807	0.568444
	O5481	O	0.511933	-0.458882	0.607411
	O5482	O	0.553934	-0.290702	0.568500
	O5483	O	0.554539	-0.208938	0.542866
	O5484	O	0.514659	-0.208951	0.495997
	O5485	O	0.573762	-0.291112	0.570330
	O5486	O	0.574389	-0.209003	0.544753
	O5487	O	0.616494	-0.208659	0.505999
	O5488	O	0.511900	-0.290818	0.607365
	O5489	O	0.554524	-0.040508	0.542829
	O5490	O	0.514699	-0.040690	0.495981
	O5491	O	0.616426	-0.040333	0.505954
	O5492	O	0.574348	-0.040717	0.544669
	O5493	O	0.613538	-0.290914	0.617356
	O5494	O	0.501856	-0.124890	0.610528
	O5495	O	0.626395	-0.375169	0.502782
	C5496	C	0.597601	-0.285624	0.598572
	C5497	C	0.601679	-0.374829	0.603301
	C5498	C	0.597598	-0.463923	0.598535
	C5499	C	0.589694	-0.463987	0.589166
	C5500	C	0.585660	-0.374849	0.584368
	C5501	C	0.589701	-0.285641	0.589176
	C5502	C	0.577166	-0.375057	0.574198
	C5503	C	0.610207	-0.374983	0.613455
	C5504	C	0.550381	-0.374851	0.571651
	C5505	C	0.541386	-0.374765	0.580088
	C5506	C	0.537126	-0.285950	0.584121
	C5507	C	0.528758	-0.285744	0.591858
	C5508	C	0.524448	-0.374725	0.595749
	C5509	C	0.528752	-0.463599	0.591808
	C5510	C	0.537093	-0.463532	0.584035
	C5511	C	0.515466	-0.374695	0.604200
	C5512	C	0.551161	-0.124690	0.539003
	C5513	C	0.542607	-0.125046	0.528894
	C5514	C	0.538540	-0.035819	0.524142
	C5515	C	0.530613	-0.035749	0.514805
	C5516	C	0.526566	-0.125006	0.509997
	C5517	C	0.530636	-0.214396	0.514779
	C5518	C	0.538558	-0.214357	0.524124
	C5519	C	0.518054	-0.125011	0.499818
	C5520	C	0.577908	-0.125102	0.541523
	C5521	C	0.586925	-0.125215	0.533100
	C5522	C	0.591237	-0.214319	0.529187
	C5523	C	0.599606	-0.214223	0.521466
	C5524	C	0.603890	-0.124971	0.517539
	C5525	C	0.599546	-0.035849	0.521368
	C5526	C	0.591154	-0.036038	0.529079
	C5527	C	0.612909	-0.124739	0.509165
	H5528	H	0.602890	-0.283227	0.518523
	H5529	H	0.588016	-0.283344	0.532214
	H5530	H	0.600630	-0.216743	0.602298
	H5531	H	0.586635	-0.216428	0.585544
	H5532	H	0.564498	-0.374977	0.538332
	H5533	H	0.563760	-0.125186	0.574897
	H5534	H	0.502036	-0.124939	0.600880
	H5535	H	0.626077	-0.375624	0.512361
	H5536	H	0.541637	-0.283772	0.527740
	H5537	H	0.527587	-0.283435	0.511110
	H5538	H	0.525556	-0.216768	0.594992
	H5539	H	0.540374	-0.217228	0.581106
	H5540	H	0.527564	0.033577	0.511120
	H5541	H	0.541618	0.033286	0.527819
	H5542	H	0.540321	-0.532625	0.580932
	H5543	H	0.525521	-0.532251	0.594910
	H5544	H	0.586646	-0.533010	0.585472
	H5545	H	0.600646	-0.532777	0.602198
	H5546	H	0.587860	0.032702	0.532067
	H5547	H	0.602736	0.033201	0.518256
	Al5548	Al	0.564155	-0.000331	0.556591
	Al5549	Al	0.564127	0.249985	0.556592
	Al5550	Al	0.504989	0.249927	0.482314
	Al5551	Al	0.505032	0.000121	0.482272
	O5552	O	0.573789	0.040769	0.570301
	O5553	O	0.564357	0.125008	0.547913
	O5554	O	0.563922	0.375302	0.565291
	O5555	O	0.613567	0.040886	0.617245
	O5556	O	0.553885	0.040957	0.568434
	O5557	O	0.511901	0.040736	0.607326
	O5558	O	0.553929	0.209236	0.568513
	O5559	O	0.554492	0.290783	0.542835
	O5560	O	0.514647	0.290858	0.495932
	O5561	O	0.573756	0.209059	0.570323
	O5562	O	0.574349	0.291047	0.544789
	O5563	O	0.616422	0.290763	0.505961
	O5564	O	0.511883	0.208895	0.607366
	O5565	O	0.554480	0.459176	0.542878
	O5566	O	0.514640	0.459103	0.495985
	O5567	O	0.616426	0.458853	0.505930
	O5568	O	0.574282	0.459081	0.544617
	O5569	O	0.613556	0.209103	0.617278
	O5570	O	0.501929	0.375000	0.610541
	O5571	O	0.626486	0.125054	0.502745
	C5572	C	0.597631	0.214311	0.598439
	C5573	C	0.601689	0.125126	0.603234
	C5574	C	0.597626	0.035992	0.598468
	C5575	C	0.589735	0.035753	0.589096
	C5576	C	0.585656	0.124929	0.584324
	C5577	C	0.589734	0.214107	0.589061
	C5578	C	0.577128	0.125108	0.574190
	C5579	C	0.610177	0.125024	0.613425
	C5580	C	0.550366	0.124998	0.571682
	C5581	C	0.541393	0.125045	0.580167
	C5582	C	0.537118	0.213996	0.584113
	C5583	C	0.528743	0.213944	0.591866
	C5584	C	0.524460	0.125060	0.595774
	C5585	C	0.528727	0.035936	0.591822
	C5586	C	0.537098	0.035964	0.584054
	C5587	C	0.515466	0.125025	0.604184
	C5588	C	0.551107	0.374865	0.538995
	C5589	C	0.542610	0.375037	0.528824
	C5590	C	0.538529	0.464021	0.524090
	C5591	C	0.530616	0.464209	0.514723
	C5592	C	0.526567	0.375117	0.509909
	C5593	C	0.530630	0.286044	0.514667
	C5594	C	0.538543	0.285947	0.524042
	C5595	C	0.518018	0.374944	0.499828
	C5596	C	0.577854	0.375132	0.541486
	C5597	C	0.586881	0.375156	0.533103
	C5598	C	0.591218	0.286208	0.529267
	C5599	C	0.599605	0.286136	0.521537
	C5600	C	0.603861	0.374999	0.517510
	C5601	C	0.599547	0.463855	0.521430
	C5602	C	0.591166	0.464125	0.529126
	C5603	C	0.612877	0.374919	0.509123
	H5604	H	0.602902	0.217343	0.518567
	H5605	H	0.587979	0.217583	0.532367
	H5606	H	0.600679	0.283447	0.602156
	H5607	H	0.586682	0.283033	0.585381
	H5608	H	0.564596	0.124252	0.538351
	H5609	H	0.563685	0.375458	0.574888
	H5610	H	0.502141	0.375289	0.600964
	H5611	H	0.626212	0.124778	0.512336
	H5612	H	0.541598	0.217267	0.527728
	H5613	H	0.527555	0.217133	0.511050
	H5614	H	0.525511	0.282767	0.594941
	H5615	H	0.540351	0.283390	0.581096
	H5616	H	0.527514	0.532944	0.511137
	H5617	H	0.541548	0.532990	0.527826
	H5618	H	0.540303	-0.032668	0.580952
	H5619	H	0.525479	-0.032821	0.594837
	H5620	H	0.586689	-0.033535	0.585428
	H5621	H	0.600672	-0.033108	0.602193
	H5622	H	0.587922	0.532954	0.532111
	H5623	H	0.602769	0.532663	0.518374
	Al5624	Al	0.560759	-0.500057	0.693555
	Al5625	Al	0.560763	-0.249966	0.693591
	Al5626	Al	0.501693	-0.249808	0.619288
	Al5627	Al	0.501669	-0.499764	0.619207
	O5628	O	0.570423	-0.458813	0.707265
	O5629	O	0.561058	-0.374953	0.684885
	O5630	O	0.560588	-0.124822	0.702316
	O5631	O	0.610335	-0.458973	0.754094
	O5632	O	0.550584	-0.458814	0.705414
	O5633	O	0.508506	-0.458703	0.744241
	O5634	O	0.550546	-0.290745	0.705380
	O5635	O	0.551143	-0.208808	0.679864
	O5636	O	0.511304	-0.208988	0.632992
	O5637	O	0.570463	-0.290627	0.707318
	O5638	O	0.570999	-0.208933	0.681733
	O5639	O	0.613029	-0.209351	0.642883
	O5640	O	0.508542	-0.290656	0.744297
	O5641	O	0.551130	-0.040617	0.679886
	O5642	O	0.511305	-0.040950	0.632988
	O5643	O	0.613060	-0.040994	0.642905
	O5644	O	0.570992	-0.040937	0.681710
	O5645	O	0.610350	-0.290717	0.754072
	O5646	O	0.498453	-0.124832	0.747414
	O5647	O	0.622990	-0.374801	0.639648
	C5648	C	0.594355	-0.286075	0.735360
	C5649	C	0.598422	-0.375049	0.740121
	C5650	C	0.594327	-0.464105	0.735401
	C5651	C	0.586408	-0.464205	0.726068
	C5652	C	0.582356	-0.375152	0.721255
	C5653	C	0.586429	-0.286158	0.726015
	C5654	C	0.573817	-0.374845	0.711149
	C5655	C	0.606949	-0.374871	0.750245
	C5656	C	0.547013	-0.374731	0.708607
	C5657	C	0.538022	-0.374684	0.717017
	C5658	C	0.533733	-0.285708	0.720947
	C5659	C	0.525360	-0.285961	0.728683
	C5660	C	0.521076	-0.374878	0.732651
	C5661	C	0.525369	-0.463740	0.728707
	C5662	C	0.533746	-0.463576	0.720955
	C5663	C	0.512078	-0.374684	0.741063
	C5664	C	0.547765	-0.124834	0.675998
	C5665	C	0.539256	-0.124955	0.665889
	C5666	C	0.535192	-0.035978	0.661088
	C5667	C	0.527265	-0.036083	0.651736
	C5668	C	0.523203	-0.124932	0.646979
	C5669	C	0.527271	-0.214056	0.651744
	C5670	C	0.535204	-0.214076	0.661072
	C5671	C	0.514704	-0.124979	0.636859
	C5672	C	0.574553	-0.124951	0.678566
	C5673	C	0.583542	-0.124930	0.670097
	C5674	C	0.587775	-0.214107	0.666069
	C5675	C	0.596147	-0.214076	0.658319
	C5676	C	0.600478	-0.125000	0.654489
	C5677	C	0.596211	-0.035794	0.658454
	C5678	C	0.587845	-0.035826	0.666187
	C5679	C	0.609491	-0.125034	0.646092
	H5680	H	0.599346	-0.283244	0.655216
	H5681	H	0.584511	-0.283068	0.669071
	H5682	H	0.597407	-0.216863	0.739028
	H5683	H	0.583366	-0.217151	0.722383
	H5684	H	0.561420	-0.374950	0.675303
	H5685	H	0.560385	-0.124843	0.711862
	H5686	H	0.498633	-0.125112	0.737874
	H5687	H	0.622706	-0.374896	0.649203
	H5688	H	0.538271	-0.283082	0.664698
	H5689	H	0.524229	-0.282940	0.648025
	H5690	H	0.522109	-0.216997	0.731729
	H5691	H	0.536924	-0.216445	0.717860
	H5692	H	0.524217	0.032963	0.648055
	H5693	H	0.538248	0.033045	0.664721
	H5694	H	0.537010	-0.532373	0.717903
	H5695	H	0.522161	-0.532745	0.731808
	H5696	H	0.583332	-0.533490	0.722480
	H5697	H	0.597369	-0.533234	0.739130
	H5698	H	0.584635	0.033039	0.669275
	H5699	H	0.599461	0.033380	0.655455
	Al5700	Al	0.560816	-0.000065	0.693604
	Al5701	Al	0.560841	0.250141	0.693562
	Al5702	Al	0.501674	0.249767	0.619247
	Al5703	Al	0.501671	0.000031	0.619249
	O5704	O	0.570410	0.041308	0.707325
	O5705	O	0.561017	0.124970	0.684894
	O5706	O	0.560624	0.374984	0.702296
	O5707	O	0.610310	0.041115	0.754127
	O5708	O	0.550625	0.041016	0.705452
	O5709	O	0.508530	0.041025	0.744128
	O5710	O	0.550606	0.209013	0.705398
	O5711	O	0.551127	0.291154	0.679872
	O5712	O	0.511285	0.290959	0.632951
	O5713	O	0.570494	0.209204	0.707235
	O5714	O	0.570959	0.291249	0.681604
	O5715	O	0.613074	0.290936	0.642954
	O5716	O	0.508542	0.209146	0.744231
	O5717	O	0.551143	0.459230	0.679834
	O5718	O	0.511304	0.459073	0.632929
	O5719	O	0.613046	0.458834	0.642870
	O5720	O	0.570959	0.459185	0.681712
	O5721	O	0.610331	0.209368	0.754098
	O5722	O	0.498509	0.375206	0.747432
	O5723	O	0.623005	0.124909	0.639665
	C5724	C	0.594408	0.214480	0.735318
	C5725	C	0.598413	0.125346	0.740178
	C5726	C	0.594306	0.036295	0.735483
	C5727	C	0.586379	0.036142	0.726147
	C5728	C	0.582355	0.125228	0.721315
	C5729	C	0.586484	0.214314	0.725974
	C5730	C	0.573841	0.125255	0.711132
	C5731	C	0.606953	0.125133	0.750265
	C5732	C	0.547072	0.124942	0.708644
	C5733	C	0.538079	0.124890	0.717055
	C5734	C	0.533817	0.213827	0.721048
	C5735	C	0.525427	0.213841	0.728764
	C5736	C	0.521122	0.125066	0.732669
	C5737	C	0.525351	0.036133	0.728611
	C5738	C	0.533743	0.036125	0.720886
	C5739	C	0.512101	0.125129	0.741033
	C5740	C	0.547760	0.375161	0.676015
	C5741	C	0.539248	0.374986	0.665839
	C5742	C	0.535203	0.463898	0.661025
	C5743	C	0.527286	0.464004	0.651668
	C5744	C	0.523197	0.374919	0.646929
	C5745	C	0.527268	0.285876	0.651710
	C5746	C	0.535185	0.285865	0.661041
	C5747	C	0.514656	0.375122	0.636811
	C5748	C	0.574519	0.375142	0.678436
	C5749	C	0.583514	0.375158	0.670047
	C5750	C	0.587794	0.286157	0.666060
	C5751	C	0.596188	0.286275	0.658371
	C5752	C	0.600497	0.375049	0.654498
	C5753	C	0.596222	0.464066	0.658459
	C5754	C	0.587831	0.464002	0.666163
	C5755	C	0.609499	0.375170	0.646108
	H5756	H	0.599406	0.217334	0.655321
	H5757	H	0.584510	0.217241	0.669036
	H5758	H	0.597531	0.283586	0.738841
	H5759	H	0.583470	0.283442	0.722224
	H5760	H	0.561099	0.124854	0.675310
	H5761	H	0.560441	0.375073	0.711843
	H5762	H	0.498611	0.374480	0.737870
	H5763	H	0.622829	0.125051	0.649291
	H5764	H	0.538237	0.216965	0.664747
	H5765	H	0.524211	0.216846	0.648036
	H5766	H	0.522199	0.282938	0.731810
	H5767	H	0.537056	0.282704	0.718063
	H5768	H	0.524239	0.532815	0.648010
	H5769	H	0.538246	0.533127	0.664674
	H5770	H	0.536943	-0.032923	0.717789
	H5771	H	0.522103	-0.032464	0.731554
	H5772	H	0.583323	-0.033008	0.722552
	H5773	H	0.597352	-0.032951	0.739148
	H5774	H	0.584606	0.533044	0.669233
	H5775	H	0.599475	0.532916	0.655452
	Al5776	Al	0.557491	-0.499995	0.830346
	Al5777	Al	0.557517	-0.249707	0.830343
	Al5778	Al	0.498323	-0.249620	0.756131
	Al5779	Al	0.498312	-0.499837	0.756076
	O5780	O	0.567213	-0.459001	0.843956
	O5781	O	0.557722	-0.374768	0.821666
	O5782	O	0.557351	-0.124613	0.839037
	O5783	O	0.607560	-0.458746	0.889930
	O5784	O	0.547300	-0.458799	0.842260
	O5785	O	0.505197	-0.458812	0.880899
	O5786	O	0.547333	-0.290449	0.842256
	O5787	O	0.547909	-0.208871	0.816618
	O5788	O	0.507969	-0.208800	0.769830
	O5789	O	0.567208	-0.290749	0.843956
	O5790	O	0.567730	-0.208976	0.818527
	O5791	O	0.609795	-0.208805	0.779604
	O5792	O	0.505214	-0.290371	0.880966
	O5793	O	0.547875	-0.040942	0.816597
	O5794	O	0.507990	-0.040757	0.769773
	O5795	O	0.609783	-0.040932	0.779600
	O5796	O	0.567713	-0.040872	0.818433
	O5797	O	0.607610	-0.290516	0.889852
	O5798	O	0.495188	-0.125067	0.884112
	O5799	O	0.619887	-0.374723	0.776438
	C5800	C	0.591432	-0.285639	0.871515
	C5801	C	0.595519	-0.374836	0.876228
	C5802	C	0.591368	-0.464013	0.871653
	C5803	C	0.583343	-0.464011	0.862481
	C5804	C	0.579238	-0.374897	0.857739
	C5805	C	0.583392	-0.285659	0.862345
	C5806	C	0.570619	-0.374730	0.847773
	C5807	C	0.604153	-0.374647	0.886141
	C5808	C	0.543780	-0.374640	0.845444
	C5809	C	0.534749	-0.374613	0.853803
	C5810	C	0.530475	-0.285279	0.857760
	C5811	C	0.522080	-0.285221	0.865458
	C5812	C	0.517771	-0.374511	0.869371
	C5813	C	0.522066	-0.463724	0.865463
	C5814	C	0.530455	-0.463915	0.857751
	C5815	C	0.508765	-0.374619	0.877764
	C5816	C	0.544503	-0.124815	0.812754
	C5817	C	0.535934	-0.125001	0.802658
	C5818	C	0.531884	-0.035921	0.797884
	C5819	C	0.523948	-0.035841	0.788562
	C5820	C	0.519875	-0.124753	0.783809
	C5821	C	0.523926	-0.213797	0.788547
	C5822	C	0.531859	-0.213795	0.797875
	C5823	C	0.511353	-0.124648	0.773651
	C5824	C	0.571269	-0.124958	0.815261
	C5825	C	0.580258	-0.124687	0.806831
	C5826	C	0.584542	-0.213501	0.802882
	C5827	C	0.592924	-0.213419	0.795133
	C5828	C	0.597210	-0.124611	0.791200
	C5829	C	0.592926	-0.035808	0.795155
	C5830	C	0.584557	-0.035791	0.802904
	C5831	C	0.606226	-0.124831	0.782808
	H5832	H	0.596187	-0.282066	0.792108
	H5833	H	0.581309	-0.282442	0.805886
	H5834	H	0.594556	-0.216493	0.875060
	H5835	H	0.580331	-0.216496	0.858701
	H5836	H	0.558132	-0.375229	0.812117
	H5837	H	0.557214	-0.124824	0.848589
	H5838	H	0.495384	-0.125079	0.874593
	H5839	H	0.619836	-0.374413	0.786009
	H5840	H	0.534920	-0.282995	0.801493
	H5841	H	0.520865	-0.282602	0.784861
	H5842	H	0.518884	-0.215936	0.868532
	H5843	H	0.533756	-0.216053	0.854747
	H5844	H	0.520929	0.033137	0.784873
	H5845	H	0.534974	0.033148	0.801532
	H5846	H	0.533694	-0.533175	0.854707
	H5847	H	0.518810	-0.532870	0.868557
	H5848	H	0.580220	-0.533221	0.858961
	H5849	H	0.594421	-0.533060	0.875328
	H5850	H	0.581342	0.033471	0.805982
	H5851	H	0.596150	0.033123	0.792198
	Al5852	Al	0.557544	0.000241	0.830360
	Al5853	Al	0.557508	0.250166	0.830298
	Al5854	Al	0.498328	0.250395	0.756047
	Al5855	Al	0.498349	-0.000063	0.756088
	O5856	O	0.567197	0.041230	0.844030
	O5857	O	0.557698	0.125097	0.821640
	O5858	O	0.557337	0.375005	0.839050
	O5859	O	0.607537	0.041665	0.889946
	O5860	O	0.547302	0.041126	0.842162
	O5861	O	0.505181	0.041182	0.880899
	O5862	O	0.547315	0.209486	0.842264
	O5863	O	0.547817	0.291102	0.816661
	O5864	O	0.507945	0.291073	0.769813
	O5865	O	0.567206	0.209071	0.843943
	O5866	O	0.567698	0.291367	0.818401
	O5867	O	0.609835	0.291366	0.779683
	O5868	O	0.505173	0.209386	0.880847
	O5869	O	0.547858	0.459116	0.816614
	O5870	O	0.507965	0.459178	0.769785
	O5871	O	0.609827	0.459429	0.779673
	O5872	O	0.567733	0.459903	0.818449
	O5873	O	0.607587	0.209777	0.889875
	O5874	O	0.495192	0.375228	0.884142
	O5875	O	0.619826	0.124875	0.776424
	C5876	C	0.591410	0.214806	0.871530
	C5877	C	0.595477	0.125668	0.876286
	C5878	C	0.591314	0.036554	0.871712
	C5879	C	0.583300	0.036601	0.862538
	C5880	C	0.579223	0.125584	0.857771
	C5881	C	0.583385	0.214773	0.862353
	C5882	C	0.570617	0.125323	0.847772
	C5883	C	0.604145	0.125738	0.886135
	C5884	C	0.543758	0.125312	0.845394
	C5885	C	0.534754	0.124844	0.853792
	C5886	C	0.530453	0.214130	0.857733
	C5887	C	0.522075	0.214451	0.865444
	C5888	C	0.517769	0.125233	0.869365
	C5889	C	0.522032	0.035899	0.865381
	C5890	C	0.530415	0.035631	0.857681
	C5891	C	0.508734	0.125357	0.877707
	C5892	C	0.544463	0.375145	0.812768
	C5893	C	0.535921	0.375160	0.802638
	C5894	C	0.531836	0.464307	0.797906
	C5895	C	0.523908	0.464322	0.788580
	C5896	C	0.519847	0.375246	0.783784
	C5897	C	0.523920	0.286164	0.788557
	C5898	C	0.531855	0.286116	0.797892
	C5899	C	0.511326	0.375126	0.773678
	C5900	C	0.571271	0.375615	0.815220
	C5901	C	0.580279	0.375355	0.806835
	C5902	C	0.584551	0.286289	0.802868
	C5903	C	0.592937	0.286138	0.795171
	C5904	C	0.597254	0.375348	0.791249
	C5905	C	0.592953	0.464586	0.795160
	C5906	C	0.584554	0.464541	0.802858
	C5907	C	0.606295	0.375339	0.782865
	H5908	H	0.596173	0.217233	0.792110
	H5909	H	0.581300	0.217398	0.805869
	H5910	H	0.594545	0.283833	0.875020
	H5911	H	0.580346	0.283603	0.858647
	H5912	H	0.557903	0.124638	0.812081
	H5913	H	0.557136	0.374579	0.848629
	H5914	H	0.495192	0.374992	0.874577
	H5915	H	0.619688	0.124777	0.786123
	H5916	H	0.534931	0.216999	0.801542
	H5917	H	0.520837	0.216942	0.784993
	H5918	H	0.518840	0.283407	0.868465
	H5919	H	0.533716	0.283124	0.854679
	H5920	H	0.520839	0.533580	0.784997
	H5921	H	0.534888	0.533347	0.801559
	H5922	H	0.533612	-0.033295	0.854561
	H5923	H	0.518734	-0.032988	0.868363
	H5924	H	0.580189	-0.032639	0.858990
	H5925	H	0.594379	-0.032688	0.875317
	H5926	H	0.581317	0.533745	0.805920
	H5927	H	0.596222	0.533340	0.792106
	Al5928	Al	0.554959	-0.499907	0.965815
	Al5929	Al	0.554935	-0.249693	0.965764
	Al5930	Al	0.495040	-0.249801	0.892852
	Al5931	Al	0.495033	-0.499802	0.892780
	O5932	O	0.565029	-0.458936	0.978801
	O5933	O	0.554996	-0.374824	0.957028
	O5934	O	0.554861	-0.124874	0.974501
	O5935	O	0.608935	-0.458694	1.017135
	O5936	O	0.544908	-0.458570	0.977918
	O5937	O	0.502556	-0.459081	1.016147
	O5938	O	0.544883	-0.290421	0.977916
	O5939	O	0.545095	-0.209107	0.952376
	O5940	O	0.504692	-0.208691	0.906533
	O5941	O	0.565003	-0.290695	0.978818
	O5942	O	0.565016	-0.209001	0.953638
	O5943	O	0.607400	-0.208956	0.915419
	O5944	O	0.502521	-0.290725	1.016031
	O5945	O	0.545076	-0.041063	0.952439
	O5946	O	0.504718	-0.040625	0.906437
	O5947	O	0.607359	-0.040961	0.915292
	O5948	O	0.565048	-0.040890	0.953740
	O5949	O	0.608892	-0.290697	1.017204
	O5950	O	0.492474	-0.124717	1.019495
	O5951	O	0.617459	-0.374629	0.911998
	C5952	C	0.591192	-0.285659	1.002144
	C5953	C	0.595687	-0.374652	1.005981
	C5954	C	0.591203	-0.463559	1.002161
	C5955	C	0.582456	-0.463724	0.994521
	C5956	C	0.578012	-0.374644	0.990581
	C5957	C	0.582457	-0.285577	0.994473
	C5958	C	0.568687	-0.374632	0.982050
	C5959	C	0.605167	-0.374762	1.014116
	C5960	C	0.541313	-0.374611	0.981070
	C5961	C	0.532256	-0.374839	0.989373
	C5962	C	0.527898	-0.285766	0.993155
	C5963	C	0.519454	-0.285709	1.000743
	C5964	C	0.515164	-0.374839	1.004663
	C5965	C	0.519519	-0.463818	1.000834
	C5966	C	0.527958	-0.464006	0.993261
	C5967	C	0.506119	-0.374873	1.012963
	C5968	C	0.541677	-0.124951	0.948646
	C5969	C	0.533029	-0.124858	0.938738
	C5970	C	0.528904	-0.035560	0.934071
	C5971	C	0.520858	-0.035600	0.924934
	C5972	C	0.516743	-0.124841	0.920223
	C5973	C	0.520874	-0.214152	0.924872
	C5974	C	0.528917	-0.214030	0.934012
	C5975	C	0.508099	-0.124734	0.910321
	C5976	C	0.568617	-0.124968	0.950523
	C5977	C	0.577682	-0.124817	0.942312
	C5978	C	0.582008	-0.213719	0.938433
	C5979	C	0.590448	-0.213484	0.930825
	C5980	C	0.594779	-0.124782	0.926908
	C5981	C	0.590423	-0.035813	0.930706
	C5982	C	0.581987	-0.036168	0.938344
	C5983	C	0.603800	-0.124932	0.918545
	H5984	H	0.593700	-0.282460	0.927809
	H5985	H	0.578760	-0.282617	0.941438
	H5986	H	0.594536	-0.216660	1.005146
	H5987	H	0.579068	-0.216506	0.991489
	H5988	H	0.555085	-0.374933	0.947446
	H5989	H	0.554940	-0.124684	0.984053
	H5990	H	0.492454	-0.124777	1.009906
	H5991	H	0.617607	-0.374263	0.921530
	H5992	H	0.532012	-0.283025	0.937626
	H5993	H	0.517807	-0.283335	0.921277
	H5994	H	0.516175	-0.216657	1.003727
	H5995	H	0.531133	-0.216484	0.990114
	H5996	H	0.517771	0.033589	0.921328
	H5997	H	0.531978	0.033429	0.937733
	H5998	H	0.531259	-0.532949	0.990321
	H5999	H	0.516293	-0.532920	1.003883
	H6000	H	0.579098	-0.532526	0.991541
	H6001	H	0.594573	-0.532338	1.005151
	H6002	H	0.578700	0.032300	0.941215
	H6003	H	0.593626	0.033090	0.927586
	Al6004	Al	0.554953	0.000218	0.965828
	Al6005	Al	0.554953	0.250159	0.965719
	Al6006	Al	0.495013	0.250305	0.892825
	Al6007	Al	0.495041	0.000159	0.892769
	O6008	O	0.565011	0.041222	0.978879
	O6009	O	0.555087	0.124960	0.957040
	O6010	O	0.554868	0.374888	0.974527
	O6011	O	0.608947	0.041192	1.017150
	O6012	O	0.544948	0.041156	0.977990
	O6013	O	0.502518	0.041191	1.016074
	O6014	O	0.544910	0.209403	0.977933
	O6015	O	0.545107	0.291090	0.952336
	O6016	O	0.504702	0.290729	0.906475
	O6017	O	0.565030	0.209453	0.978808
	O6018	O	0.565049	0.290812	0.953652
	O6019	O	0.607400	0.291053	0.915385
	O6020	O	0.502497	0.209135	1.016059
	O6021	O	0.545042	0.459615	0.952441
	O6022	O	0.504662	0.459131	0.906519
	O6023	O	0.607414	0.459156	0.915413
	O6024	O	0.565009	0.459056	0.953666
	O6025	O	0.608933	0.209356	1.017143
	O6026	O	0.492527	0.375531	1.019496
	O6027	O	0.617443	0.125575	0.911978
	C6028	C	0.591167	0.214273	1.002235
	C6029	C	0.595717	0.125216	1.005941
	C6030	C	0.591229	0.036249	1.002026
	C6031	C	0.582490	0.036319	0.994444
	C6032	C	0.577994	0.125403	0.990605
	C6033	C	0.582429	0.214330	0.994638
	C6034	C	0.568666	0.125182	0.982076
	C6035	C	0.605192	0.125336	1.014098
	C6036	C	0.541323	0.125287	0.981064
	C6037	C	0.532273	0.125220	0.989366
	C6038	C	0.527910	0.214119	0.993208
	C6039	C	0.519476	0.214184	1.000788
	C6040	C	0.515135	0.125235	1.004616
	C6041	C	0.519527	0.036185	1.000878
	C6042	C	0.527974	0.036205	0.993297
	C6043	C	0.506069	0.125070	1.012912
	C6044	C	0.541650	0.375279	0.948607
	C6045	C	0.532962	0.375240	0.938725
	C6046	C	0.528829	0.464360	0.934046
	C6047	C	0.520796	0.464141	0.924912
	C6048	C	0.516695	0.374968	0.920273
	C6049	C	0.520846	0.285876	0.924895
	C6050	C	0.528880	0.286008	0.934026
	C6051	C	0.508072	0.374948	0.910301
	C6052	C	0.568615	0.375133	0.950505
	C6053	C	0.577671	0.375186	0.942190
	C6054	C	0.582021	0.286133	0.938374
	C6055	C	0.590464	0.285884	0.930773
	C6056	C	0.594779	0.374900	0.926856
	C6057	C	0.590469	0.463963	0.930721
	C6058	C	0.582016	0.464203	0.938333
	C6059	C	0.603832	0.375150	0.918577
	H6060	H	0.593739	0.216659	0.927881
	H6061	H	0.578783	0.217222	0.941451
	H6062	H	0.594506	0.283426	1.005342
	H6063	H	0.578980	0.283318	0.991764
	H6064	H	0.555443	0.125019	0.947534
	H6065	H	0.554853	0.375398	0.984141
	H6066	H	0.492828	0.375858	1.009985
	H6067	H	0.617580	0.125694	0.921512
	H6068	H	0.532047	0.216974	0.937528
	H6069	H	0.517785	0.216867	0.921262
	H6070	H	0.516182	0.283056	1.003692
	H6071	H	0.531164	0.283240	0.990206
	H6072	H	0.517692	0.533234	0.921286
	H6073	H	0.531942	0.533411	0.937551
	H6074	H	0.531276	-0.032549	0.990370
	H6075	H	0.516270	-0.032675	1.003899
	H6076	H	0.579136	-0.032411	0.991384
	H6077	H	0.594638	-0.032811	1.004990
	H6078	H	0.578794	0.533179	0.941354
	H6079	H	0.593762	0.532898	0.927773
	Al6080	Al	0.692783	-0.499750	0.034091
	Al6081	Al	0.692769	-0.250741	0.034102
	Al6082	Al	0.619794	-0.250135	0.028550
	Al6083	Al	0.619837	-0.499214	0.028584
	O6084	O	0.703672	-0.458929	0.045496
	O6085	O	0.691833	-0.375365	0.025305
	O6086	O	0.693362	-0.124945	0.043014
	O6087	O	0.747636	-0.459239	0.083858
	O6088	O	0.683504	-0.459571	0.047799
	O6089	O	0.639657	-0.459287	0.083318
	O6090	O	0.683581	-0.291583	0.047919
	O6091	O	0.681034	-0.209523	0.024377
	O6092	O	0.631527	-0.208688	0.038371
	O6093	O	0.703694	-0.291109	0.045460
	O6094	O	0.702203	-0.209249	0.020933
	O6095	O	0.745998	-0.209319	-0.014602
	O6096	O	0.639662	-0.291213	0.083287
	O6097	O	0.681045	-0.041198	0.024263
	O6098	O	0.631528	-0.040385	0.038469
	O6099	O	0.746028	-0.041327	-0.014601
	O6100	O	0.702153	-0.041240	0.020930
	O6101	O	0.747650	-0.291089	0.083828
	O6102	O	0.629316	-0.125153	0.087698
	O6103	O	0.755916	-0.375301	-0.019567
	C6104	C	0.730175	-0.285913	0.068169
	C6105	C	0.734638	-0.375040	0.072099
	C6106	C	0.730162	-0.464074	0.068207
	C6107	C	0.721421	-0.464022	0.060572
	C6108	C	0.716910	-0.375063	0.056746
	C6109	C	0.721419	-0.286011	0.060561
	C6110	C	0.707423	-0.375065	0.048559
	C6111	C	0.743956	-0.375294	0.080574
	C6112	C	0.679958	-0.375608	0.051090
	C6113	C	0.670745	-0.375490	0.059146
	C6114	C	0.666236	-0.285921	0.062710
	C6115	C	0.657410	-0.285737	0.069435
	C6116	C	0.652843	-0.375270	0.072890
	C6117	C	0.657395	-0.464878	0.069461
	C6118	C	0.666200	-0.465046	0.062688
	C6119	C	0.643390	-0.375318	0.080405
	C6120	C	0.676801	-0.125266	0.025230
	C6121	C	0.666107	-0.125004	0.027764
	C6122	C	0.661156	-0.034972	0.029607
	C6123	C	0.651440	-0.034755	0.033161
	C6124	C	0.646443	-0.124551	0.034914
	C6125	C	0.651424	-0.214554	0.033172
	C6126	C	0.661128	-0.214830	0.029612
	C6127	C	0.635783	-0.124529	0.037547
	C6128	C	0.705882	-0.125033	0.018023
	C6129	C	0.715308	-0.124808	0.010426
	C6130	C	0.719832	-0.214541	0.006986
	C6131	C	0.728636	-0.214479	0.000201
	C6132	C	0.733177	-0.124928	-0.003365
	C6133	C	0.728709	-0.035245	0.000285
	C6134	C	0.719888	-0.035208	0.007062
	C6135	C	0.742426	-0.125263	-0.011440
	H6136	H	0.731994	-0.284344	-0.002477
	H6137	H	0.716425	-0.284377	0.009579
	H6138	H	0.733544	-0.216811	0.071123
	H6139	H	0.718038	-0.216969	0.057538
	H6140	H	0.690513	-0.375042	0.015868
	H6141	H	0.694120	-0.124651	0.052568
	H6142	H	0.627858	-0.124800	0.078342
	H6143	H	0.756584	-0.376022	-0.010006
	H6144	H	0.664847	-0.284754	0.028142
	H6145	H	0.647680	-0.284472	0.034484
	H6146	H	0.653959	-0.215967	0.071936
	H6147	H	0.669634	-0.216079	0.060059
	H6148	H	0.647701	0.035149	0.034458
	H6149	H	0.664901	0.035161	0.028170
	H6150	H	0.669566	-0.535012	0.060041
	H6151	H	0.653933	-0.534268	0.071974
	H6152	H	0.718042	-0.533245	0.057570
	H6153	H	0.733543	-0.533305	0.071144
	H6154	H	0.716486	0.034568	0.009743
	H6155	H	0.732107	0.034797	-0.002278
	Al6156	Al	0.692769	0.000361	0.034081
	Al6157	Al	0.692837	0.248823	0.034118
	Al6158	Al	0.619800	0.249725	0.028532
	Al6159	Al	0.619814	0.000619	0.028517
	O6160	O	0.703672	0.040677	0.045469
	O6161	O	0.691783	0.124742	0.025315
	O6162	O	0.693460	0.374470	0.042960
	O6163	O	0.747596	0.040486	0.083944
	O6164	O	0.683512	0.040874	0.047864
	O6165	O	0.639659	0.041173	0.083245
	O6166	O	0.683597	0.208778	0.047931
	O6167	O	0.681101	0.290515	0.024305
	O6168	O	0.631524	0.291168	0.038340
	O6169	O	0.703699	0.208477	0.045537
	O6170	O	0.702218	0.290726	0.020912
	O6171	O	0.746088	0.290573	-0.014599
	O6172	O	0.639718	0.209285	0.083417
	O6173	O	0.681112	0.458669	0.024174
	O6174	O	0.631588	0.459514	0.038371
	O6175	O	0.746016	0.458563	-0.014742
	O6176	O	0.702229	0.458801	0.020942
	O6177	O	0.747593	0.208867	0.083902
	O6178	O	0.629340	0.374927	0.087805
	O6179	O	0.755959	0.124542	-0.019531
	C6180	C	0.730149	0.213885	0.068202
	C6181	C	0.734624	0.124698	0.072129
	C6182	C	0.730149	0.035631	0.068214
	C6183	C	0.721402	0.035508	0.060570
	C6184	C	0.716912	0.124680	0.056709
	C6185	C	0.721398	0.213822	0.060571
	C6186	C	0.707439	0.124481	0.048584
	C6187	C	0.743929	0.124574	0.080666
	C6188	C	0.679963	0.124855	0.051117
	C6189	C	0.670700	0.125023	0.059132
	C6190	C	0.666237	0.214436	0.062838
	C6191	C	0.657443	0.214575	0.069557
	C6192	C	0.652829	0.125180	0.072831
	C6193	C	0.657353	0.035551	0.069335
	C6194	C	0.666158	0.035483	0.062620
	C6195	C	0.643420	0.125319	0.080425
	C6196	C	0.676842	0.374664	0.025083
	C6197	C	0.666160	0.374627	0.027696
	C6198	C	0.661184	0.464524	0.029475
	C6199	C	0.651492	0.464864	0.033047
	C6200	C	0.646483	0.374988	0.034885
	C6201	C	0.651466	0.285061	0.033137
	C6202	C	0.661159	0.284838	0.029557
	C6203	C	0.635805	0.375121	0.037480
	C6204	C	0.705926	0.374698	0.018025
	C6205	C	0.715346	0.374819	0.010427
	C6206	C	0.719877	0.285291	0.006955
	C6207	C	0.728666	0.285127	0.000164
	C6208	C	0.733224	0.374568	-0.003364
	C6209	C	0.728725	0.464199	0.000245
	C6210	C	0.719946	0.464310	0.007046
	C6211	C	0.742437	0.374584	-0.011478
	H6212	H	0.732011	0.215193	-0.002543
	H6213	H	0.716448	0.215749	0.009594
	H6214	H	0.733501	0.282763	0.071252
	H6215	H	0.718034	0.282886	0.057545
	H6216	H	0.690218	0.125319	0.015969
	H6217	H	0.694242	0.374631	0.052552
	H6218	H	0.627939	0.375610	0.078379
	H6219	H	0.756665	0.124890	-0.009946
	H6220	H	0.664884	0.214938	0.028223
	H6221	H	0.647722	0.215359	0.034598
	H6222	H	0.654075	0.284001	0.072287
	H6223	H	0.669669	0.284205	0.060253
	H6224	H	0.647793	0.535146	0.034495
	H6225	H	0.664944	0.534512	0.028082
	H6226	H	0.669514	-0.034300	0.059896
	H6227	H	0.653894	-0.034185	0.071873
	H6228	H	0.718023	-0.033444	0.057594
	H6229	H	0.733516	-0.033368	0.071227
	H6230	H	0.716591	0.534213	0.009732
	H6231	H	0.732127	0.534189	-0.002356
	Al6232	Al	0.695130	-0.500117	0.159412
	Al6233	Al	0.695112	-0.250129	0.159422
	Al6234	Al	0.630287	-0.249803	0.096438
	Al6235	Al	0.630291	-0.500615	0.096587
	O6236	O	0.704956	-0.459236	0.172805
	O6237	O	0.695124	-0.375186	0.150682
	O6238	O	0.695073	-0.125144	0.168141
	O6239	O	0.745365	-0.459333	0.218654
	O6240	O	0.685023	-0.459659	0.171545
	O6241	O	0.642647	-0.459359	0.209632
	O6242	O	0.685064	-0.291349	0.171518
	O6243	O	0.684993	-0.209393	0.146398
	O6244	O	0.641214	-0.209640	0.107779
	O6245	O	0.704963	-0.291173	0.172768
	O6246	O	0.705164	-0.209284	0.147269
	O6247	O	0.747583	-0.209338	0.109055
	O6248	O	0.642634	-0.291231	0.209667
	O6249	O	0.685083	-0.041392	0.146371
	O6250	O	0.641160	-0.041522	0.107840
	O6251	O	0.747514	-0.041268	0.108994
	O6252	O	0.705207	-0.041205	0.147267
	O6253	O	0.745418	-0.291331	0.218613
	O6254	O	0.632645	-0.125398	0.213049
	O6255	O	0.757635	-0.375390	0.105690
	C6256	C	0.729197	-0.286144	0.200330
	C6257	C	0.733323	-0.375101	0.204951
	C6258	C	0.729220	-0.464013	0.200257
	C6259	C	0.721161	-0.463828	0.191123
	C6260	C	0.717032	-0.375030	0.186485
	C6261	C	0.721144	-0.285921	0.191185
	C6262	C	0.708390	-0.375099	0.176571
	C6263	C	0.741987	-0.375431	0.214833
	C6264	C	0.681474	-0.375425	0.174680
	C6265	C	0.672377	-0.375441	0.182911
	C6266	C	0.668029	-0.286235	0.186686
	C6267	C	0.659572	-0.286049	0.194258
	C6268	C	0.655262	-0.375235	0.198168
	C6269	C	0.659585	-0.464492	0.194334
	C6270	C	0.668060	-0.464651	0.186778
	C6271	C	0.646196	-0.375163	0.206456
	C6272	C	0.681385	-0.125254	0.143091
	C6273	C	0.672056	-0.125126	0.134583
	C6274	C	0.667562	-0.036254	0.130753
	C6275	C	0.658818	-0.036300	0.123075
	C6276	C	0.654386	-0.125199	0.119089
	C6277	C	0.658889	-0.214136	0.122915
	C6278	C	0.667623	-0.214082	0.130592
	C6279	C	0.644943	-0.125278	0.110910
	C6280	C	0.708758	-0.125185	0.144114
	C6281	C	0.717812	-0.125433	0.135809
	C6282	C	0.722114	-0.214490	0.131895
	C6283	C	0.730573	-0.214732	0.124313
	C6284	C	0.734904	-0.125543	0.120472
	C6285	C	0.730541	-0.036441	0.124264
	C6286	C	0.722105	-0.036287	0.131869
	C6287	C	0.743990	-0.125422	0.112221
	H6288	H	0.733852	-0.283826	0.121348
	H6289	H	0.718857	-0.283523	0.134857
	H6290	H	0.732302	-0.217144	0.203837
	H6291	H	0.718048	-0.216827	0.187631
	H6292	H	0.695051	-0.375567	0.141087
	H6293	H	0.695134	-0.124906	0.177719
	H6294	H	0.632577	-0.125881	0.203512
	H6295	H	0.757587	-0.375293	0.115250
	H6296	H	0.671030	-0.283040	0.133527
	H6297	H	0.655549	-0.283056	0.119879
	H6298	H	0.656304	-0.216813	0.197152
	H6299	H	0.671281	-0.217211	0.183683
	H6300	H	0.655434	0.032446	0.120136
	H6301	H	0.670908	0.032705	0.133780
	H6302	H	0.671317	-0.533741	0.183829
	H6303	H	0.656314	-0.533454	0.197302
	H6304	H	0.718094	-0.532938	0.187568
	H6305	H	0.732353	-0.533045	0.203741
	H6306	H	0.718829	0.032864	0.134815
	H6307	H	0.733806	0.032637	0.121290
	Al6308	Al	0.695144	-0.000172	0.159415
	Al6309	Al	0.695160	0.249948	0.159391
	Al6310	Al	0.630289	0.250444	0.096523
	Al6311	Al	0.630260	-0.000621	0.096423
	O6312	O	0.705039	0.040885	0.172786
	O6313	O	0.695218	0.124691	0.150675
	O6314	O	0.695092	0.374948	0.168113
	O6315	O	0.745375	0.040931	0.218729
	O6316	O	0.685030	0.040594	0.171508
	O6317	O	0.642656	0.040867	0.209569
	O6318	O	0.685051	0.208906	0.171451
	O6319	O	0.685134	0.290611	0.146247
	O6320	O	0.641130	0.290785	0.108052
	O6321	O	0.704983	0.208956	0.172812
	O6322	O	0.705261	0.290881	0.147331
	O6323	O	0.747544	0.290664	0.109031
	O6324	O	0.642723	0.209106	0.209706
	O6325	O	0.685081	0.458819	0.146322
	O6326	O	0.641194	0.458765	0.107930
	O6327	O	0.747592	0.458876	0.109042
	O6328	O	0.705191	0.459109	0.147254
	O6329	O	0.745377	0.208973	0.218711
	O6330	O	0.632687	0.374904	0.213074
	O6331	O	0.757609	0.124560	0.105742
	C6332	C	0.729279	0.213948	0.200236
	C6333	C	0.733361	0.125012	0.204949
	C6334	C	0.729201	0.036083	0.200347
	C6335	C	0.721192	0.036178	0.191193
	C6336	C	0.717105	0.124993	0.186454
	C6337	C	0.721253	0.213985	0.191079
	C6338	C	0.708432	0.124743	0.176598
	C6339	C	0.741972	0.124939	0.214930
	C6340	C	0.681478	0.124819	0.174602
	C6341	C	0.672382	0.125120	0.182842
	C6342	C	0.668088	0.214398	0.186751
	C6343	C	0.659639	0.214460	0.194354
	C6344	C	0.655308	0.125140	0.198174
	C6345	C	0.659615	0.035967	0.194289
	C6346	C	0.668057	0.035893	0.186693
	C6347	C	0.646251	0.125034	0.206474
	C6348	C	0.681449	0.374547	0.143029
	C6349	C	0.672122	0.374615	0.134496
	C6350	C	0.667651	0.463581	0.130595
	C6351	C	0.658903	0.463427	0.122999
	C6352	C	0.654388	0.374550	0.119149
	C6353	C	0.658865	0.285628	0.123011
	C6354	C	0.667623	0.285671	0.130605
	C6355	C	0.644890	0.374708	0.111042
	C6356	C	0.708768	0.375047	0.144083
	C6357	C	0.717815	0.374975	0.135730
	C6358	C	0.722141	0.285898	0.131923
	C6359	C	0.730576	0.285792	0.124290
	C6360	C	0.734887	0.374827	0.120378
	C6361	C	0.730578	0.463788	0.124220
	C6362	C	0.722139	0.463892	0.131855
	C6363	C	0.743969	0.374912	0.112127
	H6364	H	0.733843	0.216742	0.121304
	H6365	H	0.718896	0.216817	0.134924
	H6366	H	0.732414	0.282883	0.203790
	H6367	H	0.718155	0.282757	0.187489
	H6368	H	0.695247	0.124119	0.141118
	H6369	H	0.694878	0.375137	0.177733
	H6370	H	0.632759	0.374793	0.203494
	H6371	H	0.757560	0.124780	0.115312
	H6372	H	0.670988	0.216892	0.133580
	H6373	H	0.655473	0.216770	0.120065
	H6374	H	0.656374	0.283346	0.197362
	H6375	H	0.671381	0.283410	0.183850
	H6376	H	0.655521	0.532382	0.119999
	H6377	H	0.671038	0.532422	0.133547
	H6378	H	0.671325	-0.033224	0.183707
	H6379	H	0.656340	-0.033172	0.197228
	H6380	H	0.718044	-0.032704	0.187717
	H6381	H	0.732241	-0.032615	0.204008
	H6382	H	0.718878	0.532976	0.134779
	H6383	H	0.733825	0.532788	0.121207
	Al6384	Al	0.692533	-0.500064	0.294821
	Al6385	Al	0.692564	-0.249939	0.294850
	Al6386	Al	0.632591	-0.250348	0.221869
	Al6387	Al	0.632626	-0.500145	0.221792
	O6388	O	0.702168	-0.458991	0.308508
	O6389	O	0.692731	-0.374969	0.286165
	O6390	O	0.692354	-0.124918	0.303587
	O6391	O	0.742050	-0.459331	0.355434
	O6392	O	0.682308	-0.459637	0.306723
	O6393	O	0.640236	-0.459359	0.345367
	O6394	O	0.682366	-0.291028	0.306715
	O6395	O	0.682818	-0.209624	0.281195
	O6396	O	0.642440	-0.209116	0.235285
	O6397	O	0.702135	-0.290954	0.308598
	O6398	O	0.702785	-0.209259	0.283012
	O6399	O	0.744806	-0.209287	0.244179
	O6400	O	0.640192	-0.291173	0.345431
	O6401	O	0.682834	-0.041476	0.281184
	O6402	O	0.642502	-0.041191	0.235146
	O6403	O	0.744874	-0.041101	0.244291
	O6404	O	0.702706	-0.040847	0.282893
	O6405	O	0.742016	-0.291154	0.355443
	O6406	O	0.630168	-0.125202	0.348557
	O6407	O	0.754865	-0.375314	0.241035
	C6408	C	0.726021	-0.286110	0.336721
	C6409	C	0.730160	-0.375233	0.341368
	C6410	C	0.726108	-0.464101	0.336531
	C6411	C	0.718193	-0.463732	0.327203
	C6412	C	0.714073	-0.374791	0.322494
	C6413	C	0.718100	-0.285849	0.327366
	C6414	C	0.705528	-0.374989	0.312414
	C6415	C	0.738670	-0.375246	0.351553
	C6416	C	0.678763	-0.375201	0.309853
	C6417	C	0.669734	-0.374903	0.318239
	C6418	C	0.665459	-0.285700	0.322183
	C6419	C	0.657060	-0.285702	0.329885
	C6420	C	0.652763	-0.374875	0.333781
	C6421	C	0.657040	-0.463996	0.329848
	C6422	C	0.665428	-0.463927	0.322132
	C6423	C	0.643743	-0.375077	0.342233
	C6424	C	0.679430	-0.125491	0.277398
	C6425	C	0.670816	-0.124986	0.267402
	C6426	C	0.666738	-0.035777	0.262696
	C6427	C	0.658721	-0.035988	0.253542
	C6428	C	0.654549	-0.125049	0.248874
	C6429	C	0.658637	-0.214210	0.253576
	C6430	C	0.666663	-0.214073	0.262716
	C6431	C	0.645890	-0.125292	0.238988
	C6432	C	0.706280	-0.124927	0.279777
	C6433	C	0.715273	-0.124932	0.271362
	C6434	C	0.719584	-0.214035	0.267480
	C6435	C	0.727980	-0.214184	0.259777
	C6436	C	0.732259	-0.125065	0.255798
	C6437	C	0.727940	-0.035871	0.259672
	C6438	C	0.719541	-0.035718	0.267376
	C6439	C	0.741284	-0.125025	0.247421
	H6440	H	0.731212	-0.283234	0.256740
	H6441	H	0.716344	-0.282962	0.270584
	H6442	H	0.728996	-0.217324	0.340506
	H6443	H	0.714976	-0.217060	0.323826
	H6444	H	0.692930	-0.375250	0.276611
	H6445	H	0.692106	-0.124775	0.313142
	H6446	H	0.630327	-0.125098	0.338934
	H6447	H	0.754660	-0.375301	0.250545
	H6448	H	0.669728	-0.283012	0.266370
	H6449	H	0.655514	-0.283489	0.250054
	H6450	H	0.653821	-0.216728	0.332909
	H6451	H	0.668697	-0.216684	0.319145
	H6452	H	0.655616	0.033143	0.249908
	H6453	H	0.669855	0.033306	0.266279
	H6454	H	0.668625	-0.532946	0.319005
	H6455	H	0.653812	-0.533006	0.332875
	H6456	H	0.715179	-0.532604	0.323482
	H6457	H	0.729190	-0.532970	0.340132
	H6458	H	0.716312	0.033339	0.270420
	H6459	H	0.731178	0.033201	0.256613
	Al6460	Al	0.692532	0.000023	0.294796
	Al6461	Al	0.692523	0.249694	0.294780
	Al6462	Al	0.632656	0.249895	0.221830
	Al6463	Al	0.632630	-0.000043	0.221758
	O6464	O	0.702230	0.041015	0.308441
	O6465	O	0.692794	0.124763	0.286118
	O6466	O	0.692361	0.374968	0.303529
	O6467	O	0.742028	0.041114	0.355426
	O6468	O	0.682336	0.040842	0.306652
	O6469	O	0.640251	0.040549	0.345451
	O6470	O	0.682320	0.208963	0.306680
	O6471	O	0.682817	0.290740	0.281214
	O6472	O	0.642492	0.290762	0.235227
	O6473	O	0.702172	0.209230	0.308552
	O6474	O	0.702778	0.290703	0.283006
	O6475	O	0.744844	0.290784	0.244322
	O6476	O	0.640210	0.208783	0.345388
	O6477	O	0.682864	0.459069	0.281183
	O6478	O	0.642478	0.458949	0.235218
	O6479	O	0.744832	0.459063	0.244248
	O6480	O	0.702736	0.459257	0.282974
	O6481	O	0.742016	0.209112	0.355455
	O6482	O	0.630174	0.374867	0.348582
	O6483	O	0.754845	0.124581	0.241051
	C6484	C	0.726058	0.214067	0.336654
	C6485	C	0.730149	0.124978	0.341407
	C6486	C	0.726105	0.035919	0.336568
	C6487	C	0.718194	0.035950	0.327214
	C6488	C	0.714099	0.125106	0.322499
	C6489	C	0.718139	0.214167	0.327320
	C6490	C	0.705574	0.125060	0.312374
	C6491	C	0.738651	0.125120	0.351589
	C6492	C	0.678768	0.124871	0.309836
	C6493	C	0.669747	0.125313	0.318193
	C6494	C	0.665448	0.214458	0.322174
	C6495	C	0.657066	0.214081	0.329875
	C6496	C	0.652755	0.124777	0.333771
	C6497	C	0.657067	0.035756	0.329846
	C6498	C	0.665445	0.035960	0.322107
	C6499	C	0.643799	0.124702	0.342227
	C6500	C	0.679460	0.374938	0.277372
	C6501	C	0.670829	0.375017	0.267382
	C6502	C	0.666787	0.464312	0.262622
	C6503	C	0.658750	0.464306	0.253452
	C6504	C	0.654571	0.375114	0.248888
	C6505	C	0.658606	0.285894	0.253677
	C6506	C	0.666642	0.285789	0.262837
	C6507	C	0.645906	0.374918	0.238990
	C6508	C	0.706302	0.375017	0.279788
	C6509	C	0.715267	0.375210	0.271356
	C6510	C	0.719562	0.285956	0.267467
	C6511	C	0.727953	0.285767	0.259753
	C6512	C	0.732231	0.374888	0.255781
	C6513	C	0.727934	0.463997	0.259700
	C6514	C	0.719549	0.464255	0.267422
	C6515	C	0.741280	0.374921	0.247437
	H6516	H	0.731198	0.216968	0.256772
	H6517	H	0.716345	0.217124	0.270567
	H6518	H	0.729106	0.283072	0.340385
	H6519	H	0.715091	0.283455	0.323751
	H6520	H	0.693088	0.124270	0.276569
	H6521	H	0.692127	0.374467	0.313107
	H6522	H	0.630296	0.375043	0.339059
	H6523	H	0.754617	0.124089	0.250624
	H6524	H	0.669664	0.216495	0.266516
	H6525	H	0.655454	0.216678	0.250226
	H6526	H	0.653846	0.283079	0.332994
	H6527	H	0.668729	0.283744	0.319240
	H6528	H	0.655718	0.533068	0.249805
	H6529	H	0.669935	0.533393	0.266103
	H6530	H	0.668718	-0.033100	0.319067
	H6531	H	0.653844	-0.033500	0.332896
	H6532	H	0.715151	-0.032931	0.323492
	H6533	H	0.729171	-0.032975	0.340183
	H6534	H	0.716309	0.533198	0.270501
	H6535	H	0.731187	0.532832	0.256659
	Al6536	Al	0.689121	-0.500187	0.431590
	Al6537	Al	0.689141	-0.249851	0.431636
	Al6538	Al	0.629997	-0.250085	0.357313
	Al6539	Al	0.630033	-0.499901	0.357250
	O6540	O	0.698740	-0.459068	0.445316
	O6541	O	0.689309	-0.374796	0.422915
	O6542	O	0.688901	-0.124949	0.440376
	O6543	O	0.738613	-0.459232	0.492197
	O6544	O	0.678908	-0.459540	0.443428
	O6545	O	0.636852	-0.459502	0.482180
	O6546	O	0.678922	-0.291294	0.443449
	O6547	O	0.679531	-0.209290	0.417887
	O6548	O	0.639701	-0.209155	0.371010
	O6549	O	0.698727	-0.291052	0.445417
	O6550	O	0.699411	-0.209095	0.419860
	O6551	O	0.741444	-0.209543	0.380998
	O6552	O	0.636828	-0.291298	0.482266
	O6553	O	0.679446	-0.040895	0.417976
	O6554	O	0.639686	-0.041252	0.370988
	O6555	O	0.741423	-0.041466	0.380878
	O6556	O	0.699325	-0.041073	0.419715
	O6557	O	0.738575	-0.291425	0.492206
	O6558	O	0.626882	-0.125022	0.485422
	O6559	O	0.751492	-0.375536	0.377845
	C6560	C	0.722582	-0.286473	0.473504
	C6561	C	0.726703	-0.375283	0.478200
	C6562	C	0.722660	-0.464072	0.473379
	C6563	C	0.714734	-0.464004	0.464034
	C6564	C	0.710628	-0.375231	0.459322
	C6565	C	0.714656	-0.286323	0.464186
	C6566	C	0.702096	-0.375347	0.449230
	C6567	C	0.735212	-0.375546	0.488305
	C6568	C	0.675375	-0.375238	0.446637
	C6569	C	0.666382	-0.375118	0.455077
	C6570	C	0.662088	-0.286101	0.458996
	C6571	C	0.653719	-0.286069	0.466756
	C6572	C	0.649431	-0.375274	0.470705
	C6573	C	0.653725	-0.464338	0.466809
	C6574	C	0.662099	-0.464336	0.459059
	C6575	C	0.640406	-0.375126	0.479071
	C6576	C	0.676115	-0.125045	0.414062
	C6577	C	0.667609	-0.125004	0.403947
	C6578	C	0.663497	-0.035649	0.399304
	C6579	C	0.655587	-0.035702	0.389945
	C6580	C	0.651588	-0.125055	0.385028
	C6581	C	0.655681	-0.214352	0.389710
	C6582	C	0.663594	-0.214349	0.399068
	C6583	C	0.643069	-0.125088	0.374854
	C6584	C	0.702936	-0.125188	0.416598
	C6585	C	0.711923	-0.125047	0.408148
	C6586	C	0.716284	-0.214197	0.404403
	C6587	C	0.724650	-0.214474	0.396628
	C6588	C	0.728852	-0.125550	0.392478
	C6589	C	0.724532	-0.036348	0.396280
	C6590	C	0.716162	-0.036252	0.404075
	C6591	C	0.737861	-0.125454	0.384096
	H6592	H	0.727928	-0.283647	0.393802
	H6593	H	0.713137	-0.283119	0.407642
	H6594	H	0.725620	-0.217657	0.477257
	H6595	H	0.711558	-0.217530	0.460667
	H6596	H	0.689519	-0.374385	0.413344
	H6597	H	0.688682	-0.124892	0.449946
	H6598	H	0.627205	-0.125430	0.475859
	H6599	H	0.751219	-0.375491	0.387384
	H6600	H	0.666681	-0.283552	0.402620
	H6601	H	0.652676	-0.283392	0.385942
	H6602	H	0.650509	-0.217098	0.469771
	H6603	H	0.665311	-0.217104	0.455921
	H6604	H	0.652496	0.033530	0.386337
	H6605	H	0.666522	0.033648	0.403059
	H6606	H	0.665332	-0.533334	0.456050
	H6607	H	0.650477	-0.533053	0.469875
	H6608	H	0.711676	-0.532750	0.460365
	H6609	H	0.725737	-0.532999	0.476993
	H6610	H	0.712910	0.032610	0.407054
	H6611	H	0.727716	0.032733	0.393134
	Al6612	Al	0.689141	-0.000212	0.431614
	Al6613	Al	0.689126	0.249828	0.431591
	Al6614	Al	0.630026	0.250026	0.357313
	Al6615	Al	0.630054	-0.000151	0.357271
	O6616	O	0.698782	0.040987	0.445283
	O6617	O	0.689415	0.125047	0.422898
	O6618	O	0.688910	0.374845	0.440316
	O6619	O	0.738638	0.040998	0.492190
	O6620	O	0.678921	0.041253	0.443475
	O6621	O	0.636877	0.040778	0.482217
	O6622	O	0.678909	0.209271	0.443385
	O6623	O	0.679522	0.290896	0.417878
	O6624	O	0.639727	0.290685	0.370906
	O6625	O	0.698716	0.209030	0.445325
	O6626	O	0.699372	0.291210	0.419775
	O6627	O	0.741495	0.290952	0.381041
	O6628	O	0.636864	0.208746	0.482287
	O6629	O	0.679473	0.459239	0.417946
	O6630	O	0.639622	0.458472	0.371004
	O6631	O	0.741428	0.459159	0.380944
	O6632	O	0.699368	0.459263	0.419740
	O6633	O	0.738608	0.208952	0.492205
	O6634	O	0.626859	0.374847	0.485413
	O6635	O	0.751434	0.124547	0.377865
	C6636	C	0.722572	0.213826	0.473514
	C6637	C	0.726674	0.124957	0.478248
	C6638	C	0.722617	0.036065	0.473417
	C6639	C	0.714709	0.035876	0.464073
	C6640	C	0.710620	0.124887	0.459362
	C6641	C	0.714662	0.213711	0.464188
	C6642	C	0.702127	0.125157	0.449183
	C6643	C	0.735262	0.124988	0.488335
	C6644	C	0.675365	0.125272	0.446588
	C6645	C	0.666370	0.125368	0.455020
	C6646	C	0.662117	0.214376	0.459034
	C6647	C	0.653738	0.214192	0.466785
	C6648	C	0.649436	0.125082	0.470653
	C6649	C	0.653706	0.036236	0.466640
	C6650	C	0.662077	0.036191	0.458916
	C6651	C	0.640434	0.124964	0.479070
	C6652	C	0.676096	0.374893	0.414080
	C6653	C	0.667603	0.374827	0.403954
	C6654	C	0.663494	0.463709	0.399219
	C6655	C	0.655579	0.463760	0.389860
	C6656	C	0.651555	0.374833	0.385016
	C6657	C	0.655649	0.285848	0.389777
	C6658	C	0.663555	0.285914	0.399153
	C6659	C	0.643055	0.374643	0.374869
	C6660	C	0.702927	0.375302	0.416580
	C6661	C	0.711915	0.375147	0.408149
	C6662	C	0.716256	0.286149	0.404341
	C6663	C	0.724651	0.286077	0.396625
	C6664	C	0.728893	0.374934	0.392552
	C6665	C	0.724523	0.463844	0.396313
	C6666	C	0.716131	0.464092	0.404038
	C6667	C	0.737900	0.374758	0.384169
	H6668	H	0.727939	0.217267	0.393641
	H6669	H	0.713092	0.217322	0.407555
	H6670	H	0.725629	0.282642	0.477143
	H6671	H	0.711599	0.282543	0.460495
	H6672	H	0.689698	0.125547	0.413362
	H6673	H	0.688758	0.374597	0.449893
	H6674	H	0.627094	0.374695	0.475806
	H6675	H	0.751299	0.124617	0.387429
	H6676	H	0.666615	0.216861	0.402859
	H6677	H	0.652594	0.216802	0.386131
	H6678	H	0.650500	0.283217	0.469903
	H6679	H	0.665381	0.283180	0.456054
	H6680	H	0.652449	0.532689	0.386279
	H6681	H	0.666473	0.532884	0.402978
	H6682	H	0.665287	-0.032672	0.455844
	H6683	H	0.650477	-0.032791	0.469607
	H6684	H	0.711708	-0.032970	0.460341
	H6685	H	0.725725	-0.032963	0.477008
	H6686	H	0.712857	0.532883	0.406987
	H6687	H	0.727677	0.532467	0.393088
	Al6688	Al	0.685702	-0.500108	0.568451
	Al6689	Al	0.685774	-0.250299	0.568530
	Al6690	Al	0.626659	-0.249925	0.494126
	Al6691	Al	0.626632	-0.500283	0.494044
	O6692	O	0.695374	-0.459210	0.582205
	O6693	O	0.685928	-0.374906	0.559816
	O6694	O	0.685543	-0.125085	0.577156
	O6695	O	0.735278	-0.459513	0.628952
	O6696	O	0.675474	-0.458891	0.580297
	O6697	O	0.633377	-0.458951	0.618991
	O6698	O	0.675517	-0.290832	0.580361
	O6699	O	0.676075	-0.209128	0.554755
	O6700	O	0.636296	-0.209384	0.507840
	O6701	O	0.695360	-0.290935	0.582298
	O6702	O	0.695948	-0.209119	0.556611
	O6703	O	0.738036	-0.209237	0.517721
	O6704	O	0.633442	-0.290814	0.619161
	O6705	O	0.676122	-0.041104	0.554709
	O6706	O	0.636238	-0.041492	0.507819
	O6707	O	0.738060	-0.040978	0.517836
	O6708	O	0.695991	-0.040718	0.556651
	O6709	O	0.735307	-0.291071	0.628955
	O6710	O	0.623432	-0.124581	0.622267
	O6711	O	0.747973	-0.375156	0.514676
	C6712	C	0.719299	-0.285869	0.610262
	C6713	C	0.723389	-0.375180	0.614996
	C6714	C	0.719308	-0.464323	0.610242
	C6715	C	0.711364	-0.464427	0.600933
	C6716	C	0.707281	-0.375177	0.596170
	C6717	C	0.711353	-0.285895	0.600944
	C6718	C	0.698730	-0.374991	0.586128
	C6719	C	0.731935	-0.375161	0.625086
	C6720	C	0.671964	-0.374745	0.583538
	C6721	C	0.662972	-0.374662	0.591964
	C6722	C	0.658712	-0.285576	0.595975
	C6723	C	0.650332	-0.285552	0.603713
	C6724	C	0.645996	-0.374592	0.607536
	C6725	C	0.650250	-0.463732	0.603506
	C6726	C	0.658633	-0.463669	0.595781
	C6727	C	0.636971	-0.374739	0.615885
	C6728	C	0.672717	-0.125114	0.550903
	C6729	C	0.664161	-0.124981	0.540808
	C6730	C	0.660087	-0.036169	0.536052
	C6731	C	0.652182	-0.036307	0.526694
	C6732	C	0.648125	-0.125166	0.521927
	C6733	C	0.652228	-0.213951	0.526648
	C6734	C	0.660142	-0.214011	0.536000
	C6735	C	0.639612	-0.125191	0.511757
	C6736	C	0.699515	-0.124942	0.553431
	C6737	C	0.708532	-0.125051	0.545033
	C6738	C	0.712758	-0.214110	0.541005
	C6739	C	0.721163	-0.214116	0.533241
	C6740	C	0.725489	-0.125062	0.529392
	C6741	C	0.721220	-0.036002	0.533347
	C6742	C	0.712830	-0.035938	0.541123
	C6743	C	0.734498	-0.125371	0.520984
	H6744	H	0.724344	-0.282830	0.530163
	H6745	H	0.709450	-0.283002	0.543893
	H6746	H	0.722363	-0.217129	0.613958
	H6747	H	0.708294	-0.216826	0.597306
	H6748	H	0.686192	-0.374414	0.550197
	H6749	H	0.685227	-0.124989	0.586677
	H6750	H	0.623752	-0.125082	0.612754
	H6751	H	0.747709	-0.375245	0.524208
	H6752	H	0.663251	-0.282692	0.539625
	H6753	H	0.649179	-0.282970	0.522995
	H6754	H	0.647107	-0.216633	0.606789
	H6755	H	0.661981	-0.216391	0.593001
	H6756	H	0.649121	0.032599	0.523084
	H6757	H	0.663136	0.032820	0.539693
	H6758	H	0.661839	-0.532952	0.592681
	H6759	H	0.646962	-0.532811	0.606428
	H6760	H	0.708310	-0.533339	0.597251
	H6761	H	0.722378	-0.533196	0.613881
	H6762	H	0.709629	0.033061	0.544132
	H6763	H	0.724473	0.032817	0.530361
	Al6764	Al	0.685727	-0.000317	0.568442
	Al6765	Al	0.685717	0.249792	0.568462
	Al6766	Al	0.626660	0.249834	0.494113
	Al6767	Al	0.626650	0.000046	0.494099
	O6768	O	0.695344	0.041019	0.582209
	O6769	O	0.685986	0.124755	0.559770
	O6770	O	0.685475	0.375163	0.577151
	O6771	O	0.735252	0.040747	0.628893
	O6772	O	0.675468	0.040870	0.580248
	O6773	O	0.633450	0.040533	0.619063
	O6774	O	0.675533	0.208889	0.580336
	O6775	O	0.676086	0.291195	0.554775
	O6776	O	0.636280	0.291297	0.507829
	O6777	O	0.695363	0.208998	0.582181
	O6778	O	0.695881	0.291027	0.556541
	O6779	O	0.738027	0.290940	0.517834
	O6780	O	0.633464	0.208772	0.619152
	O6781	O	0.676057	0.459292	0.554740
	O6782	O	0.636238	0.459515	0.507869
	O6783	O	0.737995	0.459212	0.517775
	O6784	O	0.695903	0.459196	0.556624
	O6785	O	0.735289	0.208862	0.628970
	O6786	O	0.623480	0.375064	0.622270
	O6787	O	0.748082	0.124999	0.514621
	C6788	C	0.719308	0.214385	0.610203
	C6789	C	0.723340	0.125295	0.615037
	C6790	C	0.719274	0.036178	0.610217
	C6791	C	0.711330	0.036141	0.600920
	C6792	C	0.707259	0.125109	0.596191
	C6793	C	0.711386	0.214184	0.600873
	C6794	C	0.698724	0.125147	0.586071
	C6795	C	0.731911	0.125007	0.625080
	C6796	C	0.671938	0.124959	0.583493
	C6797	C	0.662949	0.124768	0.591939
	C6798	C	0.658708	0.214022	0.595996
	C6799	C	0.650340	0.214031	0.603751
	C6800	C	0.646018	0.124824	0.607581
	C6801	C	0.650255	0.035680	0.603515
	C6802	C	0.658616	0.035557	0.595767
	C6803	C	0.637008	0.124973	0.615924
	C6804	C	0.672717	0.375010	0.550888
	C6805	C	0.664200	0.375115	0.540739
	C6806	C	0.660153	0.464287	0.535957
	C6807	C	0.652207	0.464200	0.526647
	C6808	C	0.648141	0.375065	0.521879
	C6809	C	0.652199	0.285824	0.526651
	C6810	C	0.660140	0.285827	0.535971
	C6811	C	0.639632	0.375413	0.511750
	C6812	C	0.699448	0.375100	0.553387
	C6813	C	0.708471	0.375484	0.544984
	C6814	C	0.712736	0.286236	0.540970
	C6815	C	0.721124	0.285861	0.533249
	C6816	C	0.725455	0.374769	0.529386
	C6817	C	0.721196	0.464007	0.533414
	C6818	C	0.712815	0.464381	0.541144
	C6819	C	0.734458	0.375084	0.520983
	H6820	H	0.724337	0.216787	0.530127
	H6821	H	0.709445	0.217485	0.543910
	H6822	H	0.722424	0.283322	0.613739
	H6823	H	0.708321	0.283261	0.597145
	H6824	H	0.686309	0.124660	0.550224
	H6825	H	0.685267	0.374833	0.586675
	H6826	H	0.623715	0.374758	0.612744
	H6827	H	0.747832	0.125399	0.524188
	H6828	H	0.663189	0.216717	0.539628
	H6829	H	0.649152	0.216360	0.523000
	H6830	H	0.647151	0.283200	0.606891
	H6831	H	0.661987	0.283167	0.593059
	H6832	H	0.649158	0.533391	0.522982
	H6833	H	0.663234	0.533618	0.539594
	H6834	H	0.661819	-0.033653	0.592607
	H6835	H	0.646968	-0.033452	0.606445
	H6836	H	0.708293	-0.032909	0.597228
	H6837	H	0.722381	-0.032812	0.613786
	H6838	H	0.709611	0.533434	0.544287
	H6839	H	0.724490	0.532884	0.530475
	Al6840	Al	0.682462	-0.499918	0.705193
	Al6841	Al	0.682461	-0.249730	0.705192
	Al6842	Al	0.623218	-0.249477	0.631008
	Al6843	Al	0.623247	-0.499635	0.630946
	O6844	O	0.692156	-0.458644	0.718834
	O6845	O	0.682732	-0.374771	0.696472
	O6846	O	0.682276	-0.124695	0.713887
	O6847	O	0.732520	-0.458870	0.764829
	O6848	O	0.672214	-0.458634	0.717009
	O6849	O	0.630147	-0.458578	0.755837
	O6850	O	0.672303	-0.290726	0.717184
	O6851	O	0.672800	-0.208845	0.691493
	O6852	O	0.632854	-0.208999	0.644687
	O6853	O	0.692158	-0.290770	0.718802
	O6854	O	0.692636	-0.208805	0.693331
	O6855	O	0.734711	-0.209388	0.654518
	O6856	O	0.630254	-0.290523	0.755921
	O6857	O	0.672802	-0.040740	0.691535
	O6858	O	0.632870	-0.040747	0.644651
	O6859	O	0.734730	-0.041161	0.654537
	O6860	O	0.692681	-0.040581	0.693309
	O6861	O	0.732573	-0.290856	0.764728
	O6862	O	0.620254	-0.124710	0.759052
	O6863	O	0.744747	-0.374723	0.651314
	C6864	C	0.716393	-0.285681	0.746362
	C6865	C	0.720473	-0.374752	0.751082
	C6866	C	0.716318	-0.463565	0.746470
	C6867	C	0.708276	-0.463667	0.737320
	C6868	C	0.704202	-0.374720	0.732602
	C6869	C	0.708346	-0.285692	0.737215
	C6870	C	0.695575	-0.374520	0.722625
	C6871	C	0.729122	-0.374938	0.760976
	C6872	C	0.668696	-0.374671	0.720280
	C6873	C	0.659703	-0.374736	0.728674
	C6874	C	0.655472	-0.285661	0.732775
	C6875	C	0.647085	-0.285526	0.740502
	C6876	C	0.642738	-0.374666	0.744272
	C6877	C	0.646964	-0.463831	0.740178
	C6878	C	0.655349	-0.463900	0.732441
	C6879	C	0.633746	-0.374659	0.752662
	C6880	C	0.669424	-0.124720	0.687663
	C6881	C	0.660833	-0.124863	0.677577
	C6882	C	0.656752	-0.035883	0.672818
	C6883	C	0.648829	-0.035724	0.663485
	C6884	C	0.644754	-0.124837	0.658713
	C6885	C	0.648833	-0.213826	0.663470
	C6886	C	0.656766	-0.214000	0.672801
	C6887	C	0.636210	-0.124781	0.648576
	C6888	C	0.696217	-0.124931	0.690116
	C6889	C	0.705224	-0.125060	0.681738
	C6890	C	0.709542	-0.214312	0.677873
	C6891	C	0.717936	-0.214249	0.670141
	C6892	C	0.722179	-0.125117	0.666131
	C6893	C	0.717880	-0.035830	0.670025
	C6894	C	0.709498	-0.035986	0.677775
	C6895	C	0.731183	-0.125185	0.657753
	H6896	H	0.721217	-0.283277	0.667192
	H6897	H	0.706337	-0.283432	0.680939
	H6898	H	0.719505	-0.216852	0.749922
	H6899	H	0.705305	-0.216578	0.733606
	H6900	H	0.683135	-0.374919	0.686906
	H6901	H	0.681946	-0.125449	0.723401
	H6902	H	0.620519	-0.124369	0.749468
	H6903	H	0.744449	-0.375282	0.660814
	H6904	H	0.659848	-0.282946	0.676392
	H6905	H	0.645769	-0.282438	0.659811
	H6906	H	0.643935	-0.216217	0.743692
	H6907	H	0.658717	-0.216516	0.729828
	H6908	H	0.645776	0.033329	0.659872
	H6909	H	0.659842	0.033003	0.676423
	H6910	H	0.658489	-0.533061	0.729245
	H6911	H	0.643678	-0.532870	0.743071
	H6912	H	0.705190	-0.532700	0.733765
	H6913	H	0.719372	-0.532674	0.750094
	H6914	H	0.706225	0.033260	0.680743
	H6915	H	0.721096	0.033354	0.667013
	Al6916	Al	0.682480	0.000310	0.705177
	Al6917	Al	0.682508	0.250241	0.705248
	Al6918	Al	0.623226	0.250203	0.630989
	Al6919	Al	0.623234	0.000239	0.630951
	O6920	O	0.692122	0.040871	0.718886
	O6921	O	0.682638	0.125340	0.696475
	O6922	O	0.682213	0.375052	0.713892
	O6923	O	0.732566	0.041140	0.764769
	O6924	O	0.672250	0.041165	0.717009
	O6925	O	0.630198	0.041057	0.755833
	O6926	O	0.672319	0.209453	0.717159
	O6927	O	0.672770	0.290916	0.691552
	O6928	O	0.632877	0.291087	0.644730
	O6929	O	0.692175	0.209034	0.718889
	O6930	O	0.692659	0.291150	0.693323
	O6931	O	0.734722	0.291351	0.654524
	O6932	O	0.630185	0.209163	0.755858
	O6933	O	0.672798	0.459134	0.691492
	O6934	O	0.632884	0.459005	0.644651
	O6935	O	0.734739	0.459401	0.654508
	O6936	O	0.692608	0.459271	0.693275
	O6937	O	0.732539	0.209128	0.764740
	O6938	O	0.620158	0.375131	0.759059
	O6939	O	0.744695	0.125186	0.651338
	C6940	C	0.716415	0.213980	0.746283
	C6941	C	0.720487	0.125017	0.751054
	C6942	C	0.716309	0.035951	0.746472
	C6943	C	0.708269	0.035980	0.737367
	C6944	C	0.704206	0.124920	0.732589
	C6945	C	0.708383	0.213897	0.737181
	C6946	C	0.695560	0.124907	0.722691
	C6947	C	0.729131	0.124927	0.760976
	C6948	C	0.668712	0.125197	0.720241
	C6949	C	0.659713	0.125074	0.728639
	C6950	C	0.655450	0.214251	0.732643
	C6951	C	0.647065	0.214275	0.740394
	C6952	C	0.642754	0.125214	0.744248
	C6953	C	0.647033	0.035889	0.740255
	C6954	C	0.655397	0.035962	0.732498
	C6955	C	0.633744	0.125282	0.752659
	C6956	C	0.669442	0.375067	0.687642
	C6957	C	0.660853	0.375104	0.677606
	C6958	C	0.656801	0.464457	0.672829
	C6959	C	0.648875	0.464456	0.663504
	C6960	C	0.644769	0.375322	0.658723
	C6961	C	0.648819	0.286012	0.663526
	C6962	C	0.656748	0.285956	0.672856
	C6963	C	0.636239	0.375051	0.648574
	C6964	C	0.696187	0.375218	0.690110
	C6965	C	0.705187	0.375227	0.681704
	C6966	C	0.709477	0.286182	0.677746
	C6967	C	0.717866	0.286289	0.670051
	C6968	C	0.722154	0.375379	0.666100
	C6969	C	0.717836	0.464362	0.669980
	C6970	C	0.709449	0.464410	0.677701
	C6971	C	0.731175	0.375480	0.657743
	H6972	H	0.721079	0.217257	0.667027
	H6973	H	0.706218	0.216927	0.680772
	H6974	H	0.719561	0.283095	0.749776
	H6975	H	0.705282	0.283057	0.733584
	H6976	H	0.682577	0.125264	0.686921
	H6977	H	0.681896	0.374899	0.723521
	H6978	H	0.620337	0.375465	0.749525
	H6979	H	0.744414	0.123897	0.660899
	H6980	H	0.659832	0.216829	0.676500
	H6981	H	0.645774	0.216763	0.659891
	H6982	H	0.643832	0.283462	0.743462
	H6983	H	0.658713	0.283187	0.729669
	H6984	H	0.645852	0.533625	0.659822
	H6985	H	0.659907	0.533478	0.676417
	H6986	H	0.658614	-0.032916	0.729439
	H6987	H	0.643750	-0.033230	0.743169
	H6988	H	0.705091	-0.033136	0.733914
	H6989	H	0.719383	-0.033039	0.750137
	H6990	H	0.706180	0.533601	0.680692
	H6991	H	0.721062	0.533266	0.666859
	Al6992	Al	0.679955	-0.499719	0.840725
	Al6993	Al	0.679921	-0.249529	0.840654
	Al6994	Al	0.619973	-0.249538	0.767758
	Al6995	Al	0.620010	-0.499722	0.767776
	O6996	O	0.689987	-0.458718	0.853772
	O6997	O	0.680016	-0.374685	0.831919
	O6998	O	0.679946	-0.124529	0.849437
	O6999	O	0.733905	-0.458759	0.892223
	O7000	O	0.669918	-0.458710	0.852874
	O7001	O	0.627552	-0.458436	0.891207
	O7002	O	0.669875	-0.290429	0.852852
	O7003	O	0.670111	-0.208542	0.827287
	O7004	O	0.629679	-0.208554	0.781427
	O7005	O	0.689996	-0.290531	0.853756
	O7006	O	0.690053	-0.208860	0.828593
	O7007	O	0.732367	-0.208802	0.790290
	O7008	O	0.627586	-0.290280	0.891205
	O7009	O	0.670061	-0.040756	0.827370
	O7010	O	0.629738	-0.040546	0.781390
	O7011	O	0.732345	-0.040597	0.790285
	O7012	O	0.690043	-0.040697	0.828603
	O7013	O	0.733891	-0.290642	0.892196
	O7014	O	0.617512	-0.124718	0.894506
	O7015	O	0.742377	-0.374911	0.786863
	C7016	C	0.716196	-0.285855	0.877078
	C7017	C	0.720692	-0.374853	0.880966
	C7018	C	0.716165	-0.463921	0.877171
	C7019	C	0.707438	-0.464002	0.869507
	C7020	C	0.702965	-0.374793	0.865556
	C7021	C	0.707471	-0.285767	0.869428
	C7022	C	0.693670	-0.374748	0.856969
	C7023	C	0.730149	-0.374801	0.889145
	C7024	C	0.666312	-0.374652	0.856011
	C7025	C	0.657284	-0.374407	0.864309
	C7026	C	0.652967	-0.285476	0.868185
	C7027	C	0.644545	-0.285590	0.875834
	C7028	C	0.640185	-0.374624	0.879719
	C7029	C	0.644524	-0.463648	0.875877
	C7030	C	0.652953	-0.463325	0.868242
	C7031	C	0.631130	-0.374459	0.888032
	C7032	C	0.666652	-0.124720	0.823562
	C7033	C	0.657958	-0.124910	0.813730
	C7034	C	0.653867	-0.035909	0.809019
	C7035	C	0.645842	-0.035831	0.799852
	C7036	C	0.641728	-0.124728	0.795178
	C7037	C	0.645842	-0.213785	0.799862
	C7038	C	0.653871	-0.213943	0.809029
	C7039	C	0.633100	-0.124696	0.785242
	C7040	C	0.693621	-0.124805	0.825455
	C7041	C	0.702696	-0.124623	0.817207
	C7042	C	0.706948	-0.213837	0.813187
	C7043	C	0.715376	-0.213678	0.805571
	C7044	C	0.719740	-0.124702	0.801768
	C7045	C	0.715472	-0.035515	0.805754
	C7046	C	0.707056	-0.035493	0.813411
	C7047	C	0.728787	-0.124788	0.793467
	H7048	H	0.718597	-0.282830	0.802500
	H7049	H	0.703654	-0.282809	0.816093
	H7050	H	0.719610	-0.216681	0.879987
	H7051	H	0.704134	-0.216842	0.866329
	H7052	H	0.680146	-0.374751	0.822389
	H7053	H	0.680101	-0.124524	0.859022
	H7054	H	0.617690	-0.124108	0.884995
	H7055	H	0.742419	-0.375421	0.796409
	H7056	H	0.656976	-0.283206	0.812588
	H7057	H	0.642741	-0.282803	0.796287
	H7058	H	0.641252	-0.216745	0.878829
	H7059	H	0.656198	-0.216613	0.865172
	H7060	H	0.642750	0.033158	0.796277
	H7061	H	0.656986	0.032971	0.812614
	H7062	H	0.656233	-0.532321	0.865242
	H7063	H	0.641291	-0.532705	0.878939
	H7064	H	0.704052	-0.532923	0.866504
	H7065	H	0.719556	-0.532872	0.880236
	H7066	H	0.703847	0.033367	0.816488
	H7067	H	0.718787	0.033363	0.802825
	Al7068	Al	0.679924	0.000548	0.840700
	Al7069	Al	0.679935	0.250183	0.840730
	Al7070	Al	0.620006	0.250248	0.767774
	Al7071	Al	0.619994	0.000105	0.767743
	O7072	O	0.689994	0.040994	0.853723
	O7073	O	0.679978	0.125266	0.831925
	O7074	O	0.679934	0.375048	0.849526
	O7075	O	0.733924	0.041288	0.892137
	O7076	O	0.669859	0.040833	0.852875
	O7077	O	0.627553	0.041058	0.891185
	O7078	O	0.669874	0.208958	0.852878
	O7079	O	0.670083	0.291083	0.827408
	O7080	O	0.629714	0.291033	0.781389
	O7081	O	0.689964	0.209025	0.853800
	O7082	O	0.690061	0.290905	0.828643
	O7083	O	0.732311	0.291191	0.790207
	O7084	O	0.627548	0.209142	0.891181
	O7085	O	0.670115	0.458997	0.827405
	O7086	O	0.629719	0.459226	0.781379
	O7087	O	0.732300	0.459358	0.790285
	O7088	O	0.690073	0.459164	0.828715
	O7089	O	0.733906	0.209321	0.892171
	O7090	O	0.617573	0.375575	0.894471
	O7091	O	0.742374	0.125212	0.786901
	C7092	C	0.716239	0.214123	0.877023
	C7093	C	0.720726	0.125147	0.880912
	C7094	C	0.716203	0.036041	0.877168
	C7095	C	0.707440	0.036313	0.869543
	C7096	C	0.702988	0.125121	0.865540
	C7097	C	0.707489	0.214101	0.869395
	C7098	C	0.693660	0.125081	0.857016
	C7099	C	0.730169	0.125139	0.889098
	C7100	C	0.666330	0.124835	0.856068
	C7101	C	0.657268	0.124892	0.864343
	C7102	C	0.652949	0.213716	0.868167
	C7103	C	0.644520	0.213692	0.875808
	C7104	C	0.640200	0.124774	0.879718
	C7105	C	0.644495	0.035863	0.875812
	C7106	C	0.652932	0.035996	0.868185
	C7107	C	0.631139	0.125073	0.888062
	C7108	C	0.666679	0.375015	0.823597
	C7109	C	0.658008	0.375383	0.813733
	C7110	C	0.653869	0.464577	0.809086
	C7111	C	0.645836	0.464495	0.799907
	C7112	C	0.641749	0.375219	0.795156
	C7113	C	0.645884	0.286226	0.799826
	C7114	C	0.653911	0.286240	0.809008
	C7115	C	0.633108	0.375170	0.785219
	C7116	C	0.693603	0.374969	0.825481
	C7117	C	0.702684	0.374857	0.817195
	C7118	C	0.706952	0.285472	0.813235
	C7119	C	0.715375	0.285797	0.805596
	C7120	C	0.719701	0.375113	0.801742
	C7121	C	0.715437	0.464368	0.805701
	C7122	C	0.707012	0.464122	0.813351
	C7123	C	0.728756	0.375194	0.793383
	H7124	H	0.718604	0.216709	0.802466
	H7125	H	0.703657	0.216202	0.816109
	H7126	H	0.719622	0.283114	0.880008
	H7127	H	0.704127	0.283250	0.866392
	H7128	H	0.680218	0.125270	0.822422
	H7129	H	0.679953	0.375163	0.859051
	H7130	H	0.617774	0.375343	0.884897
	H7131	H	0.742525	0.125208	0.796475
	H7132	H	0.657023	0.216945	0.812542
	H7133	H	0.642784	0.217198	0.796282
	H7134	H	0.641289	0.282641	0.878794
	H7135	H	0.656225	0.282525	0.865190
	H7136	H	0.642739	0.533465	0.796346
	H7137	H	0.656948	0.533499	0.812698
	H7138	H	0.656200	-0.032778	0.865271
	H7139	H	0.641238	-0.032941	0.878813
	H7140	H	0.704039	-0.032682	0.866612
	H7141	H	0.719550	-0.033167	0.880234
	H7142	H	0.703738	0.533316	0.816341
	H7143	H	0.718681	0.533465	0.802730
	Al7144	Al	0.682305	-0.500309	0.966177
	Al7145	Al	0.682274	-0.249227	0.966051
	Al7146	Al	0.617434	-0.249782	0.903214
	Al7147	Al	0.617457	-0.499708	0.903254
	O7148	O	0.694014	-0.458476	0.975996
	O7149	O	0.681645	-0.375017	0.957229
	O7150	O	0.683250	-0.124628	0.974840
	O7151	O	0.743526	-0.459803	0.961757
	O7152	O	0.672931	-0.458273	0.979343
	O7153	O	0.629088	-0.458927	1.014820
	O7154	O	0.672847	-0.289938	0.979224
	O7155	O	0.671433	-0.208338	0.954658
	O7156	O	0.627496	-0.208547	0.916292
	O7157	O	0.694004	-0.290343	0.975880
	O7158	O	0.691533	-0.208752	0.952312
	O7159	O	0.735379	-0.208676	0.916736
	O7160	O	0.629060	-0.290879	1.014805
	O7161	O	0.671386	-0.040464	0.954711
	O7162	O	0.627505	-0.040656	0.916352
	O7163	O	0.735337	-0.040501	0.916662
	O7164	O	0.691517	-0.040676	0.952215
	O7165	O	0.743589	-0.291327	0.961683
	O7166	O	0.619219	-0.125073	1.019655
	O7167	O	0.745761	-0.374624	0.912364
	C7168	C	0.723650	-0.284987	0.966942
	C7169	C	0.728624	-0.374992	0.965206
	C7170	C	0.723616	-0.464753	0.967136
	C7171	C	0.713933	-0.464468	0.970709
	C7172	C	0.708953	-0.374388	0.972389
	C7173	C	0.713949	-0.284605	0.970506
	C7174	C	0.698277	-0.374451	0.975063
	C7175	C	0.739309	-0.375422	0.962588
	C7176	C	0.669171	-0.374281	0.982191
	C7177	C	0.659783	-0.374417	0.989792
	C7178	C	0.655212	-0.284804	0.993210
	C7179	C	0.646420	-0.284992	1.000002
	C7180	C	0.641923	-0.374716	1.003541
	C7181	C	0.646460	-0.464286	0.999976
	C7182	C	0.655255	-0.464153	0.993194
	C7183	C	0.632688	-0.374685	1.011609
	C7184	C	0.667694	-0.124371	0.951578
	C7185	C	0.658185	-0.124776	0.943488
	C7186	C	0.653708	-0.035880	0.939565
	C7187	C	0.644976	-0.035773	0.931939
	C7188	C	0.640486	-0.124807	0.928094
	C7189	C	0.644925	-0.213785	0.932097
	C7190	C	0.653665	-0.213673	0.939707
	C7191	C	0.631172	-0.124814	0.919535
	C7192	C	0.695163	-0.124663	0.949142
	C7193	C	0.704399	-0.124817	0.941072
	C7194	C	0.708931	-0.214321	0.937522
	C7195	C	0.717722	-0.214358	0.930730
	C7196	C	0.722276	-0.124612	0.927317
	C7197	C	0.717690	-0.035192	0.930701
	C7198	C	0.708891	-0.035165	0.937498
	C7199	C	0.731653	-0.124602	0.919650
	H7200	H	0.721097	-0.284280	0.928039
	H7201	H	0.705571	-0.284367	0.940164
	H7202	H	0.727423	-0.215415	0.965429
	H7203	H	0.710205	-0.214383	0.971828
	H7204	H	0.681057	-0.375502	0.947594
	H7205	H	0.684679	-0.124480	0.984228
	H7206	H	0.618699	-0.125070	1.010021
	H7207	H	0.747194	-0.374595	0.921769
	H7208	H	0.657064	-0.282678	0.942675
	H7209	H	0.641534	-0.282723	0.929134
	H7210	H	0.643012	-0.214927	1.002616
	H7211	H	0.658582	-0.215061	0.990559
	H7212	H	0.641618	0.032939	0.928870
	H7213	H	0.657136	0.033108	0.942436
	H7214	H	0.658667	-0.533846	0.990588
	H7215	H	0.643102	-0.534112	1.002620
	H7216	H	0.710152	-0.534455	0.972151
	H7217	H	0.727318	-0.534886	0.965776
	H7218	H	0.705506	0.034635	0.940128
	H7219	H	0.721034	0.034737	0.928004
	Al7220	Al	0.682324	-0.000045	0.966090
	Al7221	Al	0.682301	0.250855	0.966223
	Al7222	Al	0.617451	0.250538	0.903269
	Al7223	Al	0.617451	0.000245	0.903279
	O7224	O	0.694060	0.041237	0.975892
	O7225	O	0.681686	0.125822	0.957240
	O7226	O	0.683295	0.375254	0.974977
	O7227	O	0.743574	0.040350	0.961802
	O7228	O	0.672935	0.041060	0.979309
	O7229	O	0.629125	0.040883	1.014778
	O7230	O	0.672968	0.209282	0.979424
	O7231	O	0.671417	0.290943	0.954788
	O7232	O	0.627561	0.291357	0.916254
	O7233	O	0.694090	0.209465	0.975990
	O7234	O	0.691548	0.291800	0.952390
	O7235	O	0.735349	0.291505	0.916655
	O7236	O	0.629103	0.209240	1.014800
	O7237	O	0.671406	0.458938	0.954817
	O7238	O	0.627584	0.459391	0.916212
	O7239	O	0.735329	0.459506	0.916646
	O7240	O	0.691627	0.459457	0.952435
	O7241	O	0.743582	0.208605	0.961774
	O7242	O	0.619211	0.375155	1.019660
	O7243	O	0.745760	0.125274	0.912361
	C7244	C	0.723678	0.214667	0.967000
	C7245	C	0.728659	0.124639	0.965286
	C7246	C	0.723681	0.034862	0.967124
	C7247	C	0.713961	0.034916	0.970647
	C7248	C	0.708985	0.124953	0.972409
	C7249	C	0.713972	0.214750	0.970555
	C7250	C	0.698325	0.125301	0.975068
	C7251	C	0.739335	0.124511	0.962679
	C7252	C	0.669210	0.125148	0.982236
	C7253	C	0.659793	0.125261	0.989772
	C7254	C	0.655252	0.215039	0.993187
	C7255	C	0.646461	0.215098	0.999993
	C7256	C	0.641936	0.125442	1.003499
	C7257	C	0.646450	0.035626	0.999983
	C7258	C	0.655237	0.035562	0.993180
	C7259	C	0.632713	0.125319	1.011611
	C7260	C	0.667648	0.375041	0.951748
	C7261	C	0.658220	0.375113	0.943533
	C7262	C	0.653741	0.464165	0.939662
	C7263	C	0.645025	0.464227	0.931986
	C7264	C	0.640549	0.375187	0.928063
	C7265	C	0.645009	0.286259	0.931990
	C7266	C	0.653732	0.286145	0.939656
	C7267	C	0.631214	0.375349	0.919550
	C7268	C	0.695173	0.375478	0.949219
	C7269	C	0.704399	0.375375	0.941112
	C7270	C	0.708882	0.285806	0.937482
	C7271	C	0.717653	0.285595	0.930620
	C7272	C	0.722223	0.375007	0.927214
	C7273	C	0.717665	0.464441	0.930589
	C7274	C	0.708895	0.464663	0.937436
	C7275	C	0.731619	0.375483	0.919568
	H7276	H	0.720999	0.215858	0.927881
	H7277	H	0.705486	0.216055	0.940102
	H7278	H	0.727383	0.284708	0.965486
	H7279	H	0.710218	0.284897	0.971842
	H7280	H	0.680946	0.125771	0.947587
	H7281	H	0.684807	0.375476	0.984365
	H7282	H	0.618644	0.375128	1.010114
	H7283	H	0.747221	0.125226	0.921657
	H7284	H	0.657083	0.217118	0.942691
	H7285	H	0.641583	0.217385	0.929028
	H7286	H	0.643121	0.285058	1.002705
	H7287	H	0.658656	0.284765	0.990589
	H7288	H	0.641656	0.533251	0.929084
	H7289	H	0.657109	0.532929	0.942738
	H7290	H	0.658640	-0.034357	0.990589
	H7291	H	0.643079	-0.034333	1.002654
	H7292	H	0.710232	-0.035074	0.972030
	H7293	H	0.727415	-0.035186	0.965713
	H7294	H	0.705515	0.534615	0.940024
	H7295	H	0.721038	0.534143	0.927819
	Al7296	Al	0.820187	-0.500125	0.034406
	Al7297	Al	0.820185	-0.250378	0.034432
	Al7298	Al	0.755297	-0.249797	-0.028417
	Al7299	Al	0.755277	-0.500824	-0.028492
	O7300	O	0.830055	-0.459112	0.047789
	O7301	O	0.820239	-0.375285	0.025671
	O7302	O	0.820043	-0.125145	0.043182
	O7303	O	0.870377	-0.459354	0.093761
	O7304	O	0.810094	-0.459705	0.046525
	O7305	O	0.767723	-0.459504	0.084766
	O7306	O	0.810070	-0.291567	0.046507
	O7307	O	0.810113	-0.209785	0.021406
	O7308	O	0.766116	-0.209227	-0.016950
	O7309	O	0.830011	-0.291095	0.047823
	O7310	O	0.830191	-0.209234	0.022284
	O7311	O	0.872482	-0.209625	-0.016085
	O7312	O	0.767724	-0.291293	0.084803
	O7313	O	0.810122	-0.041215	0.021356
	O7314	O	0.766221	-0.041439	-0.017018
	O7315	O	0.872541	-0.041228	-0.015939
	O7316	O	0.830188	-0.041124	0.022224
	O7317	O	0.870387	-0.291234	0.093774
	O7318	O	0.757723	-0.125680	0.088207
	O7319	O	0.882539	-0.375315	-0.019409
	C7320	C	0.854232	-0.286398	0.075351
	C7321	C	0.858363	-0.375329	0.079985
	C7322	C	0.854251	-0.464168	0.075353
	C7323	C	0.846229	-0.464264	0.066161
	C7324	C	0.842114	-0.375255	0.061480
	C7325	C	0.846208	-0.286409	0.066146
	C7326	C	0.833433	-0.375139	0.051586
	C7327	C	0.867000	-0.375289	0.089917
	C7328	C	0.806495	-0.375738	0.049655
	C7329	C	0.797425	-0.375469	0.057920
	C7330	C	0.793103	-0.286264	0.061798
	C7331	C	0.784669	-0.286221	0.069413
	C7332	C	0.780334	-0.375241	0.073268
	C7333	C	0.784638	-0.464348	0.069339
	C7334	C	0.793069	-0.464444	0.061731
	C7335	C	0.771285	-0.375402	0.081622
	C7336	C	0.806450	-0.125598	0.018101
	C7337	C	0.797152	-0.125432	0.009538
	C7338	C	0.792712	-0.036307	0.005540
	C7339	C	0.783960	-0.036390	-0.002043
	C7340	C	0.779431	-0.125618	-0.005811
	C7341	C	0.783921	-0.214681	-0.001952
	C7342	C	0.792674	-0.214728	0.005636
	C7343	C	0.769913	-0.125370	-0.013907
	C7344	C	0.833741	-0.125131	0.019087
	C7345	C	0.842804	-0.125441	0.010730
	C7346	C	0.847104	-0.214557	0.006835
	C7347	C	0.855564	-0.214804	-0.000756
	C7348	C	0.859875	-0.125530	-0.004619
	C7349	C	0.855560	-0.036490	-0.000771
	C7350	C	0.847111	-0.036307	0.006829
	C7351	C	0.868959	-0.125466	-0.012857
	H7352	H	0.858821	-0.283738	-0.003717
	H7353	H	0.843827	-0.283564	0.009822
	H7354	H	0.857334	-0.217349	0.078872
	H7355	H	0.843109	-0.217401	0.062558
	H7356	H	0.820150	-0.375190	0.016067
	H7357	H	0.819666	-0.124948	0.052699
	H7358	H	0.757824	-0.125022	0.078661
	H7359	H	0.882354	-0.375153	-0.009791
	H7360	H	0.796028	-0.283637	0.008682
	H7361	H	0.780523	-0.283506	-0.004952
	H7362	H	0.781392	-0.217563	0.072431
	H7363	H	0.796390	-0.217221	0.058832
	H7364	H	0.780595	0.032762	-0.005079
	H7365	H	0.796115	0.033054	0.008494
	H7366	H	0.796309	-0.533309	0.058680
	H7367	H	0.781362	-0.533338	0.072295
	H7368	H	0.843128	-0.533219	0.062668
	H7369	H	0.857342	-0.533108	0.078871
	H7370	H	0.843863	0.032830	0.009813
	H7371	H	0.858850	0.032471	-0.003750
	Al7372	Al	0.820178	-0.000113	0.034413
	Al7373	Al	0.820156	0.249701	0.034377
	Al7374	Al	0.755318	0.250283	-0.028414
	Al7375	Al	0.755289	-0.000817	-0.028401
	O7376	O	0.829996	0.040634	0.047706
	O7377	O	0.820134	0.124997	0.025624
	O7378	O	0.820175	0.374570	0.043201
	O7379	O	0.870345	0.040907	0.093804
	O7380	O	0.810032	0.040515	0.046514
	O7381	O	0.767728	0.040999	0.084868
	O7382	O	0.810082	0.208733	0.046505
	O7383	O	0.810060	0.290827	0.021439
	O7384	O	0.766143	0.290957	-0.016976
	O7385	O	0.830002	0.208466	0.047804
	O7386	O	0.830203	0.290641	0.022264
	O7387	O	0.872593	0.291201	-0.015919
	O7388	O	0.767739	0.209102	0.084868
	O7389	O	0.810117	0.458771	0.021335
	O7390	O	0.766224	0.458882	-0.017123
	O7391	O	0.872520	0.458890	-0.016026
	O7392	O	0.830210	0.458677	0.022210
	O7393	O	0.870326	0.209027	0.093770
	O7394	O	0.757700	0.374614	0.088186
	O7395	O	0.882517	0.124702	-0.019378
	C7396	C	0.854200	0.213595	0.075289
	C7397	C	0.858333	0.124559	0.079973
	C7398	C	0.854246	0.035621	0.075271
	C7399	C	0.846223	0.035431	0.066110
	C7400	C	0.842093	0.124391	0.061429
	C7401	C	0.846173	0.213496	0.066134
	C7402	C	0.833430	0.124416	0.051568
	C7403	C	0.866953	0.125061	0.089928
	C7404	C	0.806479	0.124808	0.049641
	C7405	C	0.797388	0.124725	0.057898
	C7406	C	0.793117	0.213736	0.061865
	C7407	C	0.784698	0.213912	0.069507
	C7408	C	0.780339	0.125029	0.073303
	C7409	C	0.784643	0.035848	0.069431
	C7410	C	0.793058	0.035790	0.061780
	C7411	C	0.771293	0.124944	0.081703
	C7412	C	0.806413	0.374818	0.018157
	C7413	C	0.797122	0.374861	0.009570
	C7414	C	0.792697	0.464016	0.005499
	C7415	C	0.783961	0.464013	-0.002149
	C7416	C	0.779404	0.374887	-0.005860
	C7417	C	0.783862	0.285854	-0.001899
	C7418	C	0.792590	0.285870	0.005754
	C7419	C	0.769941	0.374881	-0.013971
	C7420	C	0.833776	0.374640	0.019032
	C7421	C	0.842803	0.374662	0.010768
	C7422	C	0.847102	0.285804	0.006824
	C7423	C	0.855553	0.285589	-0.000783
	C7424	C	0.859893	0.374599	-0.004580
	C7425	C	0.855565	0.463615	-0.000705
	C7426	C	0.847120	0.463730	0.006901
	C7427	C	0.868978	0.375007	-0.012851
	H7428	H	0.858788	0.216565	-0.003842
	H7429	H	0.843794	0.216798	0.009685
	H7430	H	0.857303	0.282617	0.078884
	H7431	H	0.843051	0.282406	0.062623
	H7432	H	0.819872	0.124434	0.016065
	H7433	H	0.820207	0.374626	0.052832
	H7434	H	0.757537	0.375225	0.078616
	H7435	H	0.882312	0.125066	-0.009805
	H7436	H	0.795904	0.216785	0.008886
	H7437	H	0.780442	0.216710	-0.004742
	H7438	H	0.781510	0.282934	0.072640
	H7439	H	0.796420	0.282823	0.058957
	H7440	H	0.780589	0.533304	-0.005250
	H7441	H	0.796090	0.533310	0.008451
	H7442	H	0.796324	-0.033249	0.058781
	H7443	H	0.781405	-0.032887	0.072504
	H7444	H	0.843112	-0.033615	0.062534
	H7445	H	0.857354	-0.033186	0.078857
	H7446	H	0.843844	0.532493	0.009820
	H7447	H	0.858835	0.532485	-0.003697
	Al7448	Al	0.817553	-0.500283	0.169949
	Al7449	Al	0.817575	-0.250335	0.169974
	Al7450	Al	0.757659	-0.250801	0.096963
	Al7451	Al	0.757690	-0.500302	0.096934
	O7452	O	0.827177	-0.458988	0.183709
	O7453	O	0.817767	-0.375274	0.161289
	O7454	O	0.817403	-0.124920	0.178637
	O7455	O	0.867038	-0.459540	0.230562
	O7456	O	0.807336	-0.459537	0.181799
	O7457	O	0.765274	-0.459529	0.220478
	O7458	O	0.807377	-0.291423	0.181864
	O7459	O	0.807887	-0.209001	0.156359
	O7460	O	0.767509	-0.209440	0.110351
	O7461	O	0.827241	-0.290871	0.183664
	O7462	O	0.827765	-0.209024	0.158028
	O7463	O	0.869881	-0.209689	0.119376
	O7464	O	0.765209	-0.291539	0.220439
	O7465	O	0.807896	-0.041039	0.156301
	O7466	O	0.767527	-0.041244	0.110323
	O7467	O	0.869843	-0.041372	0.119263
	O7468	O	0.827773	-0.040959	0.158078
	O7469	O	0.867077	-0.291539	0.230625
	O7470	O	0.755238	-0.125324	0.223597
	O7471	O	0.879825	-0.375083	0.116093
	C7472	C	0.851107	-0.286095	0.211771
	C7473	C	0.855175	-0.375128	0.216565
	C7474	C	0.851069	-0.464061	0.211863
	C7475	C	0.843158	-0.464199	0.202478
	C7476	C	0.839127	-0.375161	0.197664
	C7477	C	0.843210	-0.286192	0.202385
	C7478	C	0.830618	-0.375031	0.187517
	C7479	C	0.863689	-0.375377	0.226725
	C7480	C	0.803802	-0.375269	0.184983
	C7481	C	0.794772	-0.375108	0.193331
	C7482	C	0.790499	-0.286296	0.197306
	C7483	C	0.782099	-0.286330	0.204992
	C7484	C	0.777810	-0.375325	0.208878
	C7485	C	0.782106	-0.464370	0.204962
	C7486	C	0.790493	-0.464221	0.197251
	C7487	C	0.768815	-0.375473	0.217285
	C7488	C	0.804493	-0.125072	0.152509
	C7489	C	0.795863	-0.125063	0.142510
	C7490	C	0.791800	-0.036327	0.137733
	C7491	C	0.783781	-0.036389	0.128546
	C7492	C	0.779613	-0.125221	0.123982
	C7493	C	0.783655	-0.213990	0.128777
	C7494	C	0.791669	-0.213891	0.137978
	C7495	C	0.770948	-0.125330	0.114109
	C7496	C	0.831293	-0.125307	0.154836
	C7497	C	0.840313	-0.125211	0.146443
	C7498	C	0.844639	-0.214552	0.142656
	C7499	C	0.853021	-0.214502	0.134906
	C7500	C	0.857271	-0.125503	0.130848
	C7501	C	0.852962	-0.036318	0.134735
	C7502	C	0.844591	-0.036359	0.142460
	C7503	C	0.866300	-0.125596	0.122470
	H7504	H	0.856266	-0.283319	0.131900
	H7505	H	0.841429	-0.283498	0.145817
	H7506	H	0.854181	-0.217193	0.215383
	H7507	H	0.840177	-0.217295	0.198689
	H7508	H	0.818005	-0.375127	0.151701
	H7509	H	0.817260	-0.124622	0.188292
	H7510	H	0.755490	-0.125585	0.214091
	H7511	H	0.879509	-0.375115	0.125614
	H7512	H	0.794739	-0.282955	0.141596
	H7513	H	0.780471	-0.282918	0.125411
	H7514	H	0.778887	-0.217226	0.208082
	H7515	H	0.793739	-0.217132	0.194307
	H7516	H	0.780723	0.032692	0.124914
	H7517	H	0.794966	0.032481	0.141171
	H7518	H	0.793735	-0.532876	0.194247
	H7519	H	0.778885	-0.532949	0.208075
	H7520	H	0.840095	-0.533211	0.198853
	H7521	H	0.854116	-0.533126	0.215518
	H7522	H	0.841322	0.032500	0.145428
	H7523	H	0.856165	0.032621	0.131601
	Al7524	Al	0.817569	-0.000009	0.169936
	Al7525	Al	0.817599	0.249885	0.169922
	Al7526	Al	0.757655	0.249507	0.096969
	Al7527	Al	0.757657	-0.000501	0.096959
	O7528	O	0.827214	0.041160	0.183664
	O7529	O	0.817815	0.125013	0.161247
	O7530	O	0.817408	0.374832	0.178668
	O7531	O	0.867059	0.040598	0.230598
	O7532	O	0.807384	0.041158	0.181855
	O7533	O	0.765268	0.040677	0.220509
	O7534	O	0.807370	0.209429	0.181738
	O7535	O	0.807916	0.291061	0.156275
	O7536	O	0.767487	0.290717	0.110399
	O7537	O	0.827256	0.209125	0.183702
	O7538	O	0.827768	0.291017	0.158033
	O7539	O	0.869839	0.290945	0.119293
	O7540	O	0.765235	0.208873	0.220538
	O7541	O	0.807897	0.458893	0.156255
	O7542	O	0.767552	0.458685	0.110269
	O7543	O	0.869871	0.459133	0.119289
	O7544	O	0.827797	0.459289	0.158038
	O7545	O	0.867037	0.208862	0.230591
	O7546	O	0.755235	0.374673	0.223675
	O7547	O	0.879833	0.124753	0.116111
	C7548	C	0.851133	0.213934	0.211740
	C7549	C	0.855186	0.124796	0.216526
	C7550	C	0.851125	0.035656	0.211793
	C7551	C	0.843202	0.035498	0.202429
	C7552	C	0.839138	0.124497	0.197666
	C7553	C	0.843213	0.213705	0.202390
	C7554	C	0.830600	0.125008	0.187529
	C7555	C	0.863682	0.124750	0.226713
	C7556	C	0.803816	0.125261	0.184975
	C7557	C	0.794814	0.125436	0.193393
	C7558	C	0.790534	0.214222	0.197379
	C7559	C	0.782153	0.214139	0.205115
	C7560	C	0.777859	0.125076	0.209013
	C7561	C	0.782166	0.036243	0.205077
	C7562	C	0.790534	0.036245	0.197322
	C7563	C	0.768825	0.124998	0.217356
	C7564	C	0.804501	0.374977	0.152501
	C7565	C	0.795862	0.374960	0.142516
	C7566	C	0.791777	0.463854	0.137791
	C7567	C	0.783745	0.463575	0.128616
	C7568	C	0.779592	0.374533	0.124018
	C7569	C	0.783694	0.285779	0.128752
	C7570	C	0.791728	0.286018	0.137922
	C7571	C	0.770939	0.374586	0.114122
	C7572	C	0.831339	0.375123	0.154861
	C7573	C	0.840347	0.375222	0.146457
	C7574	C	0.844675	0.285900	0.142624
	C7575	C	0.853065	0.285515	0.134924
	C7576	C	0.857296	0.374883	0.130888
	C7577	C	0.852973	0.464240	0.134719
	C7578	C	0.844591	0.464598	0.142440
	C7579	C	0.866317	0.374976	0.122460
	H7580	H	0.856350	0.216232	0.132005
	H7581	H	0.841489	0.216685	0.145759
	H7582	H	0.854193	0.283279	0.215350
	H7583	H	0.840157	0.282814	0.198733
	H7584	H	0.818021	0.125220	0.151673
	H7585	H	0.817244	0.374526	0.188299
	H7586	H	0.755529	0.373995	0.214056
	H7587	H	0.879637	0.124430	0.125654
	H7588	H	0.794811	0.217020	0.141569
	H7589	H	0.780582	0.216784	0.125237
	H7590	H	0.778896	0.282848	0.208208
	H7591	H	0.793753	0.283037	0.194329
	H7592	H	0.780663	0.532586	0.125045
	H7593	H	0.794883	0.532468	0.141329
	H7594	H	0.793780	-0.032819	0.194236
	H7595	H	0.778947	-0.032903	0.208085
	H7596	H	0.840138	-0.033818	0.198841
	H7597	H	0.854178	-0.033519	0.215427
	H7598	H	0.841334	0.533854	0.145394
	H7599	H	0.856206	0.533311	0.131616
	Al7600	Al	0.814223	-0.500083	0.306689
	Al7601	Al	0.814227	-0.250137	0.306703
	Al7602	Al	0.755054	-0.250307	0.232310
	Al7603	Al	0.755027	-0.500389	0.232330
	O7604	O	0.823852	-0.459105	0.320395
	O7605	O	0.814369	-0.375100	0.297985
	O7606	O	0.813947	-0.125048	0.315381
	O7607	O	0.863672	-0.459112	0.367365
	O7608	O	0.803972	-0.459425	0.318488
	O7609	O	0.761868	-0.459438	0.357237
	O7610	O	0.803991	-0.291133	0.318548
	O7611	O	0.804533	-0.209096	0.293009
	O7612	O	0.764731	-0.209146	0.245947
	O7613	O	0.823846	-0.290911	0.320391
	O7614	O	0.824394	-0.209547	0.294854
	O7615	O	0.866487	-0.209558	0.256164
	O7616	O	0.761852	-0.291142	0.357166
	O7617	O	0.804518	-0.041058	0.293018
	O7618	O	0.764734	-0.041144	0.245969
	O7619	O	0.866501	-0.041055	0.256122
	O7620	O	0.824403	-0.041233	0.294865
	O7621	O	0.863606	-0.291015	0.367511
	O7622	O	0.751885	-0.125372	0.360410
	O7623	O	0.876467	-0.375162	0.252995
	C7624	C	0.847664	-0.285823	0.348663
	C7625	C	0.851756	-0.374897	0.353402
	C7626	C	0.847734	-0.463944	0.348510
	C7627	C	0.839844	-0.463925	0.339130
	C7628	C	0.835733	-0.374870	0.334430
	C7629	C	0.839775	-0.285748	0.339269
	C7630	C	0.827210	-0.374982	0.324296
	C7631	C	0.860263	-0.374987	0.363534
	C7632	C	0.800431	-0.375293	0.321682
	C7633	C	0.791400	-0.375332	0.330070
	C7634	C	0.787138	-0.286143	0.334083
	C7635	C	0.778735	-0.286249	0.341772
	C7636	C	0.774442	-0.375416	0.345654
	C7637	C	0.778740	-0.464613	0.341742
	C7638	C	0.787125	-0.464641	0.334020
	C7639	C	0.765400	-0.375435	0.354003
	C7640	C	0.801179	-0.125077	0.289100
	C7641	C	0.792644	-0.125214	0.278961
	C7642	C	0.788565	-0.036492	0.274219
	C7643	C	0.780654	-0.036430	0.264828
	C7644	C	0.776621	-0.125324	0.259996
	C7645	C	0.780625	-0.214134	0.264900
	C7646	C	0.788531	-0.214150	0.274281
	C7647	C	0.768102	-0.125191	0.249804
	C7648	C	0.827958	-0.125351	0.291710
	C7649	C	0.836976	-0.125381	0.283308
	C7650	C	0.841270	-0.214513	0.279368
	C7651	C	0.849650	-0.214464	0.271630
	C7652	C	0.853933	-0.125195	0.267705
	C7653	C	0.849619	-0.035968	0.271594
	C7654	C	0.841236	-0.036083	0.279334
	C7655	C	0.862946	-0.125267	0.259316
	H7656	H	0.852862	-0.283594	0.268583
	H7657	H	0.838041	-0.283632	0.282424
	H7658	H	0.850714	-0.217046	0.352317
	H7659	H	0.836668	-0.217027	0.335632
	H7660	H	0.814584	-0.375084	0.288429
	H7661	H	0.813770	-0.124858	0.324947
	H7662	H	0.751979	-0.125574	0.350835
	H7663	H	0.876185	-0.375649	0.262530
	H7664	H	0.791548	-0.282866	0.277984
	H7665	H	0.777564	-0.283127	0.261296
	H7666	H	0.775505	-0.217489	0.344840
	H7667	H	0.790358	-0.217420	0.331053
	H7668	H	0.777602	0.032435	0.261195
	H7669	H	0.791617	0.032496	0.277861
	H7670	H	0.790370	-0.533384	0.330943
	H7671	H	0.775487	-0.533829	0.344788
	H7672	H	0.836777	-0.533067	0.335513
	H7673	H	0.850840	-0.532852	0.352075
	H7674	H	0.837994	0.033059	0.282387
	H7675	H	0.852867	0.032943	0.268548
	Al7676	Al	0.814177	-0.000169	0.306685
	Al7677	Al	0.814180	0.249851	0.306668
	Al7678	Al	0.755013	0.249695	0.232351
	Al7679	Al	0.755077	-0.000461	0.232340
	O7680	O	0.823824	0.041079	0.320381
	O7681	O	0.814404	0.124860	0.297964
	O7682	O	0.813982	0.374860	0.315384
	O7683	O	0.863563	0.040512	0.367391
	O7684	O	0.803927	0.040919	0.318506
	O7685	O	0.761861	0.040654	0.357279
	O7686	O	0.803936	0.208952	0.318430
	O7687	O	0.804559	0.290773	0.292967
	O7688	O	0.764693	0.290827	0.245999
	O7689	O	0.823847	0.209062	0.320439
	O7690	O	0.824377	0.290960	0.294817
	O7691	O	0.866495	0.290682	0.256149
	O7692	O	0.761864	0.208759	0.357336
	O7693	O	0.804544	0.458668	0.293002
	O7694	O	0.764679	0.458782	0.246033
	O7695	O	0.866493	0.458967	0.256171
	O7696	O	0.824431	0.459025	0.294852
	O7697	O	0.863633	0.208528	0.367307
	O7698	O	0.751902	0.374581	0.360383
	O7699	O	0.876457	0.125070	0.253028
	C7700	C	0.847649	0.213665	0.348624
	C7701	C	0.851737	0.124560	0.353317
	C7702	C	0.847751	0.035302	0.348439
	C7703	C	0.839847	0.035423	0.339050
	C7704	C	0.835727	0.124588	0.334404
	C7705	C	0.839750	0.213845	0.339247
	C7706	C	0.827174	0.125039	0.324314
	C7707	C	0.860241	0.124617	0.363454
	C7708	C	0.800382	0.124931	0.321696
	C7709	C	0.791402	0.125332	0.330145
	C7710	C	0.787111	0.214459	0.334112
	C7711	C	0.778737	0.214323	0.341844
	C7712	C	0.774451	0.125081	0.345805
	C7713	C	0.778720	0.036044	0.341814
	C7714	C	0.787101	0.036221	0.334087
	C7715	C	0.765409	0.124606	0.354116
	C7716	C	0.801144	0.374898	0.289146
	C7717	C	0.792629	0.374863	0.279036
	C7718	C	0.788566	0.463857	0.274245
	C7719	C	0.780653	0.463734	0.264864
	C7720	C	0.776566	0.374924	0.260090
	C7721	C	0.780648	0.286087	0.264819
	C7722	C	0.788559	0.286136	0.274204
	C7723	C	0.768031	0.374843	0.249939
	C7724	C	0.827945	0.374816	0.291657
	C7725	C	0.836950	0.374471	0.283226
	C7726	C	0.841261	0.285162	0.279371
	C7727	C	0.849648	0.285377	0.271651
	C7728	C	0.853914	0.374587	0.267686
	C7729	C	0.849609	0.463501	0.271582
	C7730	C	0.841229	0.463493	0.279306
	C7731	C	0.862931	0.374799	0.259309
	H7732	H	0.852923	0.216514	0.268653
	H7733	H	0.838050	0.215957	0.282388
	H7734	H	0.850663	0.283025	0.352346
	H7735	H	0.836668	0.283030	0.335715
	H7736	H	0.814672	0.124902	0.288417
	H7737	H	0.813618	0.375553	0.324928
	H7738	H	0.752279	0.374155	0.350854
	H7739	H	0.876115	0.125329	0.262555
	H7740	H	0.791595	0.216938	0.277874
	H7741	H	0.777593	0.217444	0.261142
	H7742	H	0.775495	0.283449	0.344915
	H7743	H	0.790350	0.283273	0.331063
	H7744	H	0.777590	0.532444	0.261190
	H7745	H	0.791593	0.533130	0.277903
	H7746	H	0.790321	-0.032865	0.331036
	H7747	H	0.775456	-0.033084	0.344810
	H7748	H	0.836812	-0.033710	0.335340
	H7749	H	0.850831	-0.033934	0.351999
	H7750	H	0.837947	0.532555	0.282289
	H7751	H	0.852812	0.532626	0.268528
	Al7752	Al	0.810768	-0.499764	0.443454
	Al7753	Al	0.810740	-0.249824	0.443472
	Al7754	Al	0.751655	-0.250551	0.369131
	Al7755	Al	0.751655	-0.500558	0.369092
	O7756	O	0.820388	-0.458840	0.457161
	O7757	O	0.810953	-0.374719	0.434756
	O7758	O	0.810526	-0.124862	0.452193
	O7759	O	0.860287	-0.459093	0.503988
	O7760	O	0.800583	-0.459173	0.455334
	O7761	O	0.758425	-0.459129	0.494062
	O7762	O	0.800527	-0.291115	0.455354
	O7763	O	0.801079	-0.209067	0.429833
	O7764	O	0.761318	-0.209230	0.382814
	O7765	O	0.820404	-0.290771	0.457149
	O7766	O	0.820928	-0.208846	0.431620
	O7767	O	0.863047	-0.209245	0.392949
	O7768	O	0.758403	-0.291019	0.493963
	O7769	O	0.801094	-0.041067	0.429780
	O7770	O	0.761305	-0.041253	0.382814
	O7771	O	0.863027	-0.040986	0.392936
	O7772	O	0.820970	-0.040693	0.431650
	O7773	O	0.860193	-0.290969	0.504098
	O7774	O	0.748444	-0.125452	0.497202
	O7775	O	0.873115	-0.374947	0.389782
	C7776	C	0.844267	-0.285758	0.485347
	C7777	C	0.848327	-0.375236	0.490076
	C7778	C	0.844271	-0.464435	0.485270
	C7779	C	0.836346	-0.464208	0.475928
	C7780	C	0.832292	-0.375018	0.471178
	C7781	C	0.836354	-0.285767	0.475995
	C7782	C	0.823763	-0.374858	0.461035
	C7783	C	0.856872	-0.375150	0.500150
	C7784	C	0.797002	-0.375223	0.458543
	C7785	C	0.788011	-0.375385	0.466968
	C7786	C	0.783742	-0.286359	0.470937
	C7787	C	0.775336	-0.286275	0.478626
	C7788	C	0.771007	-0.375345	0.482493
	C7789	C	0.775262	-0.464475	0.478474
	C7790	C	0.783673	-0.464512	0.470793
	C7791	C	0.761977	-0.375157	0.490848
	C7792	C	0.797707	-0.125093	0.425917
	C7793	C	0.789196	-0.124996	0.415789
	C7794	C	0.785202	-0.035971	0.410902
	C7795	C	0.777270	-0.036156	0.401541
	C7796	C	0.773177	-0.125190	0.396860
	C7797	C	0.777157	-0.214199	0.401750
	C7798	C	0.785084	-0.213943	0.411114
	C7799	C	0.764669	-0.125280	0.386663
	C7800	C	0.824497	-0.124693	0.428461
	C7801	C	0.833517	-0.125155	0.420073
	C7802	C	0.837804	-0.214292	0.416171
	C7803	C	0.846188	-0.214502	0.408443
	C7804	C	0.850474	-0.125406	0.404506
	C7805	C	0.846201	-0.036279	0.408395
	C7806	C	0.837810	-0.036162	0.416097
	C7807	C	0.859487	-0.125084	0.396125
	H7808	H	0.849425	-0.283480	0.405440
	H7809	H	0.834537	-0.283005	0.419204
	H7810	H	0.847323	-0.216596	0.488994
	H7811	H	0.833305	-0.216498	0.472337
	H7812	H	0.811219	-0.375305	0.425196
	H7813	H	0.810225	-0.125246	0.461753
	H7814	H	0.748728	-0.125561	0.487654
	H7815	H	0.872867	-0.375146	0.399446
	H7816	H	0.788087	-0.282931	0.414821
	H7817	H	0.774091	-0.283428	0.398202
	H7818	H	0.772099	-0.217290	0.481701
	H7819	H	0.786985	-0.217294	0.467923
	H7820	H	0.774259	0.032677	0.397773
	H7821	H	0.788284	0.033238	0.414420
	H7822	H	0.786872	-0.533372	0.467657
	H7823	H	0.771971	-0.533385	0.481397
	H7824	H	0.833289	-0.533725	0.472198
	H7825	H	0.847340	-0.533572	0.488918
	H7826	H	0.834554	0.032975	0.419053
	H7827	H	0.849443	0.032397	0.405332
	Al7828	Al	0.810738	0.000240	0.443505
	Al7829	Al	0.810745	0.250030	0.443457
	Al7830	Al	0.751659	0.249570	0.369155
	Al7831	Al	0.751636	-0.000291	0.369119
	O7832	O	0.820376	0.041296	0.457167
	O7833	O	0.810980	0.124950	0.434775
	O7834	O	0.810590	0.375132	0.452152
	O7835	O	0.860297	0.041068	0.503962
	O7836	O	0.800552	0.040684	0.455383
	O7837	O	0.758479	0.040784	0.494052
	O7838	O	0.800540	0.209035	0.455325
	O7839	O	0.801124	0.290904	0.429754
	O7840	O	0.761278	0.290653	0.382843
	O7841	O	0.820388	0.209171	0.457170
	O7842	O	0.820978	0.290860	0.431616
	O7843	O	0.863001	0.290798	0.392864
	O7844	O	0.758503	0.209035	0.494153
	O7845	O	0.801132	0.459049	0.429777
	O7846	O	0.761293	0.458608	0.382885
	O7847	O	0.863075	0.459200	0.392875
	O7848	O	0.820959	0.459422	0.431589
	O7849	O	0.860325	0.208972	0.503911
	O7850	O	0.748458	0.374971	0.497237
	O7851	O	0.873067	0.125191	0.389732
	C7852	C	0.844234	0.213895	0.485326
	C7853	C	0.848328	0.124986	0.490050
	C7854	C	0.844296	0.036071	0.485194
	C7855	C	0.836371	0.036155	0.475849
	C7856	C	0.832261	0.125134	0.471173
	C7857	C	0.836302	0.214004	0.475992
	C7858	C	0.823742	0.125141	0.461052
	C7859	C	0.856894	0.124862	0.500100
	C7860	C	0.797002	0.124887	0.458532
	C7861	C	0.788006	0.125087	0.466919
	C7862	C	0.783739	0.214319	0.470939
	C7863	C	0.775344	0.214251	0.478636
	C7864	C	0.771032	0.125050	0.482502
	C7865	C	0.775308	0.035886	0.478514
	C7866	C	0.783703	0.035953	0.470820
	C7867	C	0.762046	0.124673	0.490903
	C7868	C	0.797775	0.375168	0.425844
	C7869	C	0.789240	0.375030	0.415731
	C7870	C	0.785176	0.463927	0.410942
	C7871	C	0.777259	0.463864	0.401607
	C7872	C	0.773182	0.374773	0.396840
	C7873	C	0.777182	0.285809	0.401766
	C7874	C	0.785098	0.285786	0.411099
	C7875	C	0.764682	0.374725	0.386720
	C7876	C	0.824536	0.375226	0.428462
	C7877	C	0.833541	0.375316	0.420096
	C7878	C	0.837858	0.286123	0.416221
	C7879	C	0.846223	0.285889	0.408475
	C7880	C	0.850483	0.375116	0.404463
	C7881	C	0.846183	0.464250	0.408393
	C7882	C	0.837816	0.464462	0.416127
	C7883	C	0.859492	0.375055	0.396070
	H7884	H	0.849505	0.216803	0.405523
	H7885	H	0.834648	0.217392	0.419371
	H7886	H	0.847255	0.282902	0.489000
	H7887	H	0.833199	0.282950	0.472386
	H7888	H	0.811241	0.124515	0.425199
	H7889	H	0.810492	0.374752	0.461771
	H7890	H	0.748502	0.374890	0.487695
	H7891	H	0.872919	0.124752	0.399237
	H7892	H	0.788093	0.216772	0.414843
	H7893	H	0.774061	0.216862	0.398175
	H7894	H	0.772151	0.283078	0.481791
	H7895	H	0.786964	0.283152	0.467909
	H7896	H	0.774251	0.532768	0.397903
	H7897	H	0.788298	0.533061	0.414539
	H7898	H	0.786911	-0.032958	0.467652
	H7899	H	0.772094	-0.032908	0.481571
	H7900	H	0.833330	-0.032795	0.472134
	H7901	H	0.847380	-0.033053	0.488770
	H7902	H	0.834549	0.533696	0.419173
	H7903	H	0.849443	0.533005	0.405350
	Al7904	Al	0.807466	-0.499931	0.580139
	Al7905	Al	0.807455	-0.250147	0.580200
	Al7906	Al	0.748219	-0.250446	0.505929
	Al7907	Al	0.748221	-0.499979	0.505942
	O7908	O	0.817186	-0.459273	0.593777
	O7909	O	0.807711	-0.375027	0.571537
	O7910	O	0.807254	-0.125042	0.588905
	O7911	O	0.857556	-0.459041	0.639730
	O7912	O	0.797249	-0.459438	0.591994
	O7913	O	0.755118	-0.459158	0.630696
	O7914	O	0.797280	-0.291299	0.592141
	O7915	O	0.797747	-0.209633	0.566528
	O7916	O	0.757894	-0.209097	0.519587
	O7917	O	0.817168	-0.291173	0.593877
	O7918	O	0.817651	-0.209038	0.568382
	O7919	O	0.859731	-0.208629	0.529646
	O7920	O	0.755061	-0.290940	0.630630
	O7921	O	0.797755	-0.041439	0.566510
	O7922	O	0.757910	-0.040960	0.519601
	O7923	O	0.859758	-0.040415	0.529632
	O7924	O	0.817631	-0.040691	0.568297
	O7925	O	0.857527	-0.291240	0.639821
	O7926	O	0.745065	-0.124802	0.633914
	O7927	O	0.869674	-0.374905	0.526453
	C7928	C	0.841365	-0.286591	0.621352
	C7929	C	0.845487	-0.375278	0.626058
	C7930	C	0.841325	-0.464170	0.621489
	C7931	C	0.833305	-0.464024	0.612321
	C7932	C	0.829219	-0.375401	0.607564
	C7933	C	0.833349	-0.286595	0.612186
	C7934	C	0.820597	-0.375485	0.597591
	C7935	C	0.854126	-0.375039	0.635992
	C7936	C	0.793712	-0.375284	0.595225
	C7937	C	0.784668	-0.375374	0.603593
	C7938	C	0.780392	-0.286316	0.607532
	C7939	C	0.771994	-0.286031	0.615208
	C7940	C	0.767664	-0.374944	0.619112
	C7941	C	0.771953	-0.464019	0.615220
	C7942	C	0.780356	-0.464213	0.607537
	C7943	C	0.758641	-0.375096	0.627486
	C7944	C	0.794371	-0.125539	0.562673
	C7945	C	0.785826	-0.125480	0.552573
	C7946	C	0.781764	-0.036276	0.547820
	C7947	C	0.773851	-0.036282	0.538472
	C7948	C	0.769774	-0.125285	0.533672
	C7949	C	0.773839	-0.214377	0.538413
	C7950	C	0.781760	-0.214575	0.547755
	C7951	C	0.761269	-0.125027	0.523452
	C7952	C	0.821212	-0.124799	0.565184
	C7953	C	0.830230	-0.124615	0.556802
	C7954	C	0.834514	-0.213770	0.552796
	C7955	C	0.842883	-0.213610	0.545053
	C7956	C	0.847183	-0.124201	0.541202
	C7957	C	0.842909	-0.034844	0.545176
	C7958	C	0.834519	-0.035045	0.552908
	C7959	C	0.856183	-0.124676	0.532777
	H7960	H	0.846103	-0.282790	0.541956
	H7961	H	0.831252	-0.283249	0.555726
	H7962	H	0.844494	-0.217621	0.624925
	H7963	H	0.830289	-0.217586	0.608573
	H7964	H	0.807945	-0.375316	0.561978
	H7965	H	0.807040	-0.124892	0.598441
	H7966	H	0.745218	-0.125919	0.624336
	H7967	H	0.869595	-0.374669	0.536058
	H7968	H	0.784861	-0.283815	0.551357
	H7969	H	0.770800	-0.283175	0.534690
	H7970	H	0.768758	-0.217181	0.618276
	H7971	H	0.783672	-0.217462	0.604543
	H7972	H	0.770800	0.032858	0.534758
	H7973	H	0.784830	0.032798	0.551452
	H7974	H	0.783601	-0.533020	0.604530
	H7975	H	0.768704	-0.532906	0.618270
	H7976	H	0.830177	-0.532859	0.608783
	H7977	H	0.844377	-0.532925	0.625137
	H7978	H	0.831274	0.033659	0.555979
	H7979	H	0.846161	0.034229	0.542186
	Al7980	Al	0.807394	-0.000113	0.580153
	Al7981	Al	0.807424	0.249915	0.580189
	Al7982	Al	0.748271	0.249970	0.505937
	Al7983	Al	0.748255	-0.000244	0.505930
	O7984	O	0.817109	0.040829	0.593792
	O7985	O	0.807543	0.124825	0.571513
	O7986	O	0.807265	0.375146	0.588853
	O7987	O	0.857530	0.041279	0.639720
	O7988	O	0.797216	0.040902	0.592072
	O7989	O	0.755064	0.041188	0.630658
	O7990	O	0.797250	0.208996	0.592086
	O7991	O	0.797759	0.291108	0.566457
	O7992	O	0.757850	0.290999	0.519708
	O7993	O	0.817143	0.209057	0.593781
	O7994	O	0.817671	0.290918	0.568351
	O7995	O	0.859755	0.290709	0.529545
	O7996	O	0.755116	0.209173	0.630794
	O7997	O	0.797827	0.459256	0.566446
	O7998	O	0.757797	0.459040	0.519724
	O7999	O	0.859758	0.458768	0.529616
	O8000	O	0.817641	0.459025	0.568260
	O8001	O	0.857518	0.209333	0.639674
	O8002	O	0.745145	0.374974	0.633873
	O8003	O	0.869798	0.125032	0.526373
	C8004	C	0.841277	0.214146	0.621420
	C8005	C	0.845424	0.125223	0.626030
	C8006	C	0.841330	0.036286	0.621351
	C8007	C	0.833302	0.036142	0.612188
	C8008	C	0.829164	0.125077	0.607552
	C8009	C	0.833247	0.214072	0.612249
	C8010	C	0.820539	0.124836	0.597588
	C8011	C	0.854088	0.125419	0.635935
	C8012	C	0.793697	0.124893	0.595296
	C8013	C	0.784668	0.125212	0.603667
	C8014	C	0.780375	0.214154	0.607609
	C8015	C	0.771974	0.213935	0.615297
	C8016	C	0.767672	0.125045	0.619206
	C8017	C	0.771943	0.036160	0.615202
	C8018	C	0.780344	0.036257	0.607521
	C8019	C	0.758661	0.125131	0.627564
	C8020	C	0.794400	0.375387	0.562628
	C8021	C	0.785893	0.375538	0.552457
	C8022	C	0.781746	0.464474	0.547764
	C8023	C	0.773785	0.464438	0.538446
	C8024	C	0.769759	0.375470	0.533657
	C8025	C	0.773863	0.286645	0.538402
	C8026	C	0.781816	0.286580	0.547736
	C8027	C	0.761218	0.375104	0.523572
	C8028	C	0.821221	0.374889	0.565150
	C8029	C	0.830221	0.374937	0.556751
	C8030	C	0.834514	0.285908	0.552867
	C8031	C	0.842898	0.285690	0.545123
	C8032	C	0.847201	0.374651	0.541188
	C8033	C	0.842909	0.463500	0.545095
	C8034	C	0.834528	0.463714	0.552816
	C8035	C	0.856195	0.374817	0.532745
	H8036	H	0.846117	0.216660	0.542064
	H8037	H	0.831259	0.217131	0.555917
	H8038	H	0.844324	0.283276	0.625006
	H8039	H	0.830155	0.283349	0.608693
	H8040	H	0.807722	0.124731	0.561952
	H8041	H	0.807015	0.375373	0.598429
	H8042	H	0.745271	0.373921	0.624321
	H8043	H	0.869610	0.125352	0.535979
	H8044	H	0.784832	0.217557	0.551385
	H8045	H	0.770822	0.217716	0.534772
	H8046	H	0.768752	0.282692	0.618346
	H8047	H	0.783656	0.282881	0.604647
	H8048	H	0.770662	0.533607	0.534876
	H8049	H	0.784739	0.533685	0.551475
	H8050	H	0.783578	-0.032699	0.604488
	H8051	H	0.768663	-0.032496	0.618202
	H8052	H	0.830221	-0.033097	0.608577
	H8053	H	0.844440	-0.032438	0.624927
	H8054	H	0.831298	0.532822	0.555810
	H8055	H	0.846155	0.532351	0.542050
	Al8056	Al	0.804889	-0.500138	0.715515
	Al8057	Al	0.804813	-0.249877	0.715533
	Al8058	Al	0.744917	-0.249567	0.642623
	Al8059	Al	0.744945	-0.499991	0.642605
	O8060	O	0.814969	-0.458446	0.728550
	O8061	O	0.804874	-0.374923	0.706781
	O8062	O	0.804761	-0.124739	0.724281
	O8063	O	0.858789	-0.458785	0.767149
	O8064	O	0.794808	-0.459358	0.727705
	O8065	O	0.752440	-0.459172	0.765906
	O8066	O	0.794792	-0.291221	0.727697
	O8067	O	0.794921	-0.208772	0.702223
	O8068	O	0.754603	-0.208723	0.656227
	O8069	O	0.814941	-0.290209	0.728563
	O8070	O	0.814872	-0.209066	0.703396
	O8071	O	0.857366	-0.209071	0.665361
	O8072	O	0.752546	-0.291042	0.766061
	O8073	O	0.794951	-0.040841	0.702179
	O8074	O	0.754586	-0.040654	0.656248
	O8075	O	0.857305	-0.040804	0.665294
	O8076	O	0.814939	-0.040760	0.703479
	O8077	O	0.858863	-0.290879	0.767048
	O8078	O	0.742513	-0.125038	0.769361
	O8079	O	0.867421	-0.374853	0.661856
	C8080	C	0.841144	-0.285430	0.751947
	C8081	C	0.845587	-0.374414	0.755920
	C8082	C	0.841101	-0.463282	0.751980
	C8083	C	0.832394	-0.463600	0.744296
	C8084	C	0.827915	-0.374552	0.740416
	C8085	C	0.832431	-0.285580	0.744262
	C8086	C	0.818615	-0.374353	0.731841
	C8087	C	0.855077	-0.375002	0.764038
	C8088	C	0.791244	-0.375287	0.730871
	C8089	C	0.782198	-0.375323	0.739231
	C8090	C	0.777882	-0.286317	0.743105
	C8091	C	0.769469	-0.286003	0.750722
	C8092	C	0.765136	-0.375072	0.754563
	C8093	C	0.769427	-0.464141	0.750673
	C8094	C	0.777856	-0.464331	0.743061
	C8095	C	0.756065	-0.375358	0.762850
	C8096	C	0.791534	-0.124921	0.698387
	C8097	C	0.782881	-0.124547	0.688514
	C8098	C	0.778786	-0.035520	0.683787
	C8099	C	0.770772	-0.035474	0.674621
	C8100	C	0.766633	-0.124629	0.669977
	C8101	C	0.770711	-0.213580	0.674725
	C8102	C	0.778727	-0.213606	0.683905
	C8103	C	0.758024	-0.124675	0.660023
	C8104	C	0.818485	-0.124946	0.700310
	C8105	C	0.827585	-0.125252	0.692096
	C8106	C	0.831927	-0.214375	0.688239
	C8107	C	0.840375	-0.214225	0.680661
	C8108	C	0.844700	-0.125096	0.676811
	C8109	C	0.840430	-0.035797	0.680810
	C8110	C	0.831976	-0.036139	0.688393
	C8111	C	0.853776	-0.125080	0.668490
	H8112	H	0.843625	-0.283295	0.677676
	H8113	H	0.828683	-0.283568	0.691167
	H8114	H	0.844541	-0.216621	0.754885
	H8115	H	0.829072	-0.217022	0.741149
	H8116	H	0.804809	-0.375060	0.697207
	H8117	H	0.804877	-0.124477	0.733893
	H8118	H	0.742710	-0.124451	0.759859
	H8119	H	0.867596	-0.375498	0.671450
	H8120	H	0.781820	-0.282800	0.687448
	H8121	H	0.767603	-0.282540	0.671180
	H8122	H	0.766200	-0.217011	0.753698
	H8123	H	0.781131	-0.217153	0.740087
	H8124	H	0.767718	0.033712	0.670950
	H8125	H	0.781966	0.033365	0.687292
	H8126	H	0.781092	-0.533401	0.740005
	H8127	H	0.766154	-0.533162	0.753695
	H8128	H	0.829057	-0.532571	0.741243
	H8129	H	0.844524	-0.532061	0.754911
	H8130	H	0.828719	0.032819	0.691463
	H8131	H	0.843748	0.033114	0.677978
	Al8132	Al	0.804834	-0.000127	0.715512
	Al8133	Al	0.804868	0.249986	0.715535
	Al8134	Al	0.744925	0.250572	0.642673
	Al8135	Al	0.744908	0.000080	0.642578
	O8136	O	0.814913	0.040953	0.728546
	O8137	O	0.804890	0.125191	0.706785
	O8138	O	0.804910	0.374978	0.724257
	O8139	O	0.858790	0.040445	0.767083
	O8140	O	0.794806	0.040959	0.727666
	O8141	O	0.752481	0.041043	0.766025
	O8142	O	0.794805	0.209325	0.727668
	O8143	O	0.795014	0.291415	0.702176
	O8144	O	0.754600	0.291009	0.656324
	O8145	O	0.814939	0.209033	0.728521
	O8146	O	0.814941	0.291196	0.703365
	O8147	O	0.857325	0.291026	0.665241
	O8148	O	0.752507	0.209350	0.766090
	O8149	O	0.795018	0.459235	0.702136
	O8150	O	0.754582	0.458908	0.656315
	O8151	O	0.857320	0.459255	0.665217
	O8152	O	0.814949	0.459144	0.703392
	O8153	O	0.858845	0.208298	0.767074
	O8154	O	0.742443	0.375169	0.769402
	O8155	O	0.867339	0.125053	0.661842
	C8156	C	0.841067	0.213769	0.752002
	C8157	C	0.845578	0.124897	0.755827
	C8158	C	0.841082	0.035835	0.751925
	C8159	C	0.832357	0.035988	0.744266
	C8160	C	0.827886	0.124978	0.740341
	C8161	C	0.832350	0.213969	0.744317
	C8162	C	0.818565	0.125046	0.731819
	C8163	C	0.855060	0.124529	0.763978
	C8164	C	0.791246	0.125123	0.730860
	C8165	C	0.782227	0.125498	0.739210
	C8166	C	0.777926	0.214469	0.743151
	C8167	C	0.769494	0.214263	0.750783
	C8168	C	0.765157	0.125164	0.754633
	C8169	C	0.769475	0.036243	0.750708
	C8170	C	0.777902	0.036418	0.743069
	C8171	C	0.756077	0.125288	0.762909
	C8172	C	0.791575	0.375301	0.698387
	C8173	C	0.782936	0.375061	0.688489
	C8174	C	0.778837	0.463742	0.683770
	C8175	C	0.770784	0.463604	0.674654
	C8176	C	0.766617	0.374830	0.670100
	C8177	C	0.770744	0.286049	0.674744
	C8178	C	0.778807	0.286125	0.683853
	C8179	C	0.757992	0.375064	0.660158
	C8180	C	0.818539	0.375116	0.700246
	C8181	C	0.827633	0.375111	0.692016
	C8182	C	0.831957	0.286068	0.688142
	C8183	C	0.840419	0.286143	0.680563
	C8184	C	0.844737	0.375270	0.676728
	C8185	C	0.840451	0.464312	0.680671
	C8186	C	0.831992	0.464217	0.688250
	C8187	C	0.853764	0.375176	0.668400
	H8188	H	0.843675	0.217090	0.677573
	H8189	H	0.828691	0.216974	0.691106
	H8190	H	0.844444	0.282879	0.755050
	H8191	H	0.828969	0.283008	0.741386
	H8192	H	0.805101	0.125545	0.697296
	H8193	H	0.804996	0.375301	0.733819
	H8194	H	0.742556	0.374989	0.759823
	H8195	H	0.867461	0.124201	0.671353
	H8196	H	0.781889	0.217024	0.687477
	H8197	H	0.767641	0.216850	0.671211
	H8198	H	0.766239	0.283205	0.753805
	H8199	H	0.781188	0.283196	0.740178
	H8200	H	0.767691	0.532467	0.671032
	H8201	H	0.781922	0.532852	0.687300
	H8202	H	0.781146	-0.032526	0.740099
	H8203	H	0.766190	-0.032511	0.753663
	H8204	H	0.828978	-0.032978	0.741258
	H8205	H	0.844463	-0.033078	0.754911
	H8206	H	0.828773	0.533298	0.691315
	H8207	H	0.843732	0.533449	0.677785
	Al8208	Al	0.807237	-0.500336	0.840991
	Al8209	Al	0.807245	-0.249388	0.840981
	Al8210	Al	0.742421	-0.249953	0.778107
	Al8211	Al	0.742391	-0.499897	0.778178
	O8212	O	0.818978	-0.458832	0.850789
	O8213	O	0.806665	-0.375067	0.832082
	O8214	O	0.808266	-0.125059	0.849755
	O8215	O	0.868503	-0.459387	0.836639
	O8216	O	0.797801	-0.458873	0.854101
	O8217	O	0.754067	-0.458817	0.889806
	O8218	O	0.797847	-0.290972	0.854131
	O8219	O	0.796366	-0.208815	0.829606
	O8220	O	0.752496	-0.208638	0.791122
	O8221	O	0.819017	-0.290581	0.850708
	O8222	O	0.816445	-0.208250	0.827153
	O8223	O	0.860326	-0.208992	0.791631
	O8224	O	0.754050	-0.290702	0.889758
	O8225	O	0.796398	-0.040998	0.829571
	O8226	O	0.752519	-0.040473	0.791135
	O8227	O	0.860390	-0.040847	0.791717
	O8228	O	0.816534	-0.040098	0.827294
	O8229	O	0.868541	-0.291245	0.836577
	O8230	O	0.744174	-0.124688	0.894752
	O8231	O	0.870667	-0.375077	0.787197
	C8232	C	0.848579	-0.285314	0.841757
	C8233	C	0.853577	-0.375316	0.840068
	C8234	C	0.848592	-0.465138	0.841939
	C8235	C	0.838876	-0.465030	0.845504
	C8236	C	0.833896	-0.375015	0.847233
	C8237	C	0.838862	-0.285203	0.845335
	C8238	C	0.823238	-0.374811	0.849878
	C8239	C	0.864274	-0.375167	0.837494
	C8240	C	0.794121	-0.374889	0.857081
	C8241	C	0.784716	-0.374490	0.864646
	C8242	C	0.780156	-0.284668	0.868061
	C8243	C	0.771347	-0.284582	0.874858
	C8244	C	0.766862	-0.374263	0.878489
	C8245	C	0.771381	-0.463991	0.874939
	C8246	C	0.780186	-0.464219	0.868131
	C8247	C	0.757658	-0.374841	0.886603
	C8248	C	0.792633	-0.124833	0.826499
	C8249	C	0.783156	-0.124733	0.818352
	C8250	C	0.778649	-0.036016	0.814542
	C8251	C	0.769919	-0.035942	0.806881
	C8252	C	0.765478	-0.124787	0.802924
	C8253	C	0.769961	-0.213640	0.806773
	C8254	C	0.778691	-0.213593	0.814434
	C8255	C	0.756149	-0.124665	0.794404
	C8256	C	0.820104	-0.124231	0.824025
	C8257	C	0.829344	-0.124335	0.815934
	C8258	C	0.833827	-0.214064	0.812384
	C8259	C	0.842643	-0.214179	0.805618
	C8260	C	0.847219	-0.124642	0.802177
	C8261	C	0.842656	-0.034868	0.805532
	C8262	C	0.833852	-0.034704	0.812326
	C8263	C	0.856622	-0.124769	0.794589
	H8264	H	0.846055	-0.284222	0.803010
	H8265	H	0.830428	-0.283944	0.815046
	H8266	H	0.852304	-0.215223	0.840273
	H8267	H	0.835116	-0.215079	0.846670
	H8268	H	0.806080	-0.375149	0.822486
	H8269	H	0.809797	-0.124982	0.859102
	H8270	H	0.743465	-0.124348	0.885137
	H8271	H	0.871992	-0.375151	0.796580
	H8272	H	0.782073	-0.282401	0.817374
	H8273	H	0.766600	-0.282162	0.803747
	H8274	H	0.767942	-0.214255	0.877430
	H8275	H	0.783552	-0.215009	0.865374
	H8276	H	0.766527	0.033079	0.803981
	H8277	H	0.782007	0.033052	0.817575
	H8278	H	0.783572	-0.534220	0.865494
	H8279	H	0.767991	-0.533676	0.877613
	H8280	H	0.835141	-0.535137	0.846940
	H8281	H	0.852325	-0.535122	0.840610
	H8282	H	0.830480	0.034999	0.814911
	H8283	H	0.846023	0.034918	0.802854
	Al8284	Al	0.807249	-0.000353	0.841038
	Al8285	Al	0.807238	0.250728	0.840991
	Al8286	Al	0.742388	0.250046	0.778127
	Al8287	Al	0.742386	0.000063	0.778179
	O8288	O	0.818998	0.041240	0.850915
	O8289	O	0.806594	0.125042	0.832109
	O8290	O	0.808232	0.374792	0.849811
	O8291	O	0.868494	0.040113	0.836653
	O8292	O	0.797845	0.041178	0.854129
	O8293	O	0.754058	0.041021	0.889826
	O8294	O	0.797818	0.209431	0.854137
	O8295	O	0.796363	0.290919	0.829603
	O8296	O	0.752450	0.290941	0.791193
	O8297	O	0.819023	0.209515	0.850784
	O8298	O	0.816436	0.291564	0.827169
	O8299	O	0.860320	0.291142	0.791621
	O8300	O	0.754064	0.209057	0.889843
	O8301	O	0.796339	0.459050	0.829629
	O8302	O	0.752470	0.459209	0.791170
	O8303	O	0.860345	0.459377	0.791694
	O8304	O	0.816517	0.459696	0.827221
	O8305	O	0.868519	0.208354	0.836509
	O8306	O	0.744204	0.375217	0.894688
	O8307	O	0.870631	0.125179	0.787256
	C8308	C	0.848636	0.214575	0.841927
	C8309	C	0.853601	0.124575	0.840146
	C8310	C	0.848604	0.034848	0.841974
	C8311	C	0.838908	0.035163	0.845575
	C8312	C	0.833945	0.125185	0.847364
	C8313	C	0.838945	0.214920	0.845516
	C8314	C	0.823263	0.125340	0.850003
	C8315	C	0.864259	0.124339	0.837472
	C8316	C	0.794118	0.125264	0.857053
	C8317	C	0.784723	0.125239	0.864682
	C8318	C	0.780202	0.214927	0.868119
	C8319	C	0.771422	0.214917	0.874979
	C8320	C	0.766915	0.125260	0.878568
	C8321	C	0.771399	0.035660	0.874958
	C8322	C	0.780183	0.035631	0.868119
	C8323	C	0.757660	0.125056	0.886638
	C8324	C	0.792614	0.375129	0.826502
	C8325	C	0.783147	0.375072	0.818345
	C8326	C	0.778642	0.464187	0.814508
	C8327	C	0.769914	0.464119	0.806850
	C8328	C	0.765456	0.375019	0.802892
	C8329	C	0.769939	0.285860	0.806788
	C8330	C	0.778680	0.285892	0.814431
	C8331	C	0.756124	0.374972	0.794407
	C8332	C	0.820100	0.375535	0.824065
	C8333	C	0.829302	0.375407	0.815973
	C8334	C	0.833834	0.285656	0.812410
	C8335	C	0.842641	0.285678	0.805620
	C8336	C	0.847223	0.375297	0.802219
	C8337	C	0.842627	0.464971	0.805585
	C8338	C	0.833818	0.465075	0.812373
	C8339	C	0.856614	0.375225	0.794574
	H8340	H	0.846052	0.215901	0.802957
	H8341	H	0.830461	0.216024	0.815072
	H8342	H	0.852392	0.284534	0.840455
	H8343	H	0.835233	0.285013	0.846887
	H8344	H	0.805906	0.124647	0.822460
	H8345	H	0.809681	0.374763	0.859216
	H8346	H	0.743759	0.374876	0.885053
	H8347	H	0.871967	0.125284	0.796657
	H8348	H	0.782082	0.216758	0.817419
	H8349	H	0.766581	0.216754	0.803737
	H8350	H	0.768050	0.284739	0.877584
	H8351	H	0.783539	0.284657	0.865457
	H8352	H	0.766534	0.533471	0.803821
	H8353	H	0.782023	0.533208	0.817529
	H8354	H	0.783541	-0.034056	0.865402
	H8355	H	0.768034	-0.034264	0.877529
	H8356	H	0.835131	-0.034623	0.847015
	H8357	H	0.852305	-0.035175	0.840577
	H8358	H	0.830455	0.535013	0.814993
	H8359	H	0.846027	0.534638	0.802900
	Al8360	Al	0.817735	-0.499882	0.908962
	Al8361	Al	0.817811	-0.250855	0.909068
	Al8362	Al	0.744810	-0.250173	0.903549
	Al8363	Al	0.744782	-0.499369	0.903572
	O8364	O	0.828593	-0.459177	0.920434
	O8365	O	0.816768	-0.375171	0.900237
	O8366	O	0.818478	-0.125077	0.917854
	O8367	O	0.872613	-0.459466	0.958751
	O8368	O	0.808457	-0.459721	0.922685
	O8369	O	0.764633	-0.459103	0.958260
	O8370	O	0.808585	-0.291545	0.922910
	O8371	O	0.806048	-0.209828	0.899305
	O8372	O	0.756546	-0.209016	0.913406
	O8373	O	0.828724	-0.290984	0.920379
	O8374	O	0.827138	-0.209731	0.895758
	O8375	O	0.870983	-0.209514	0.860216
	O8376	O	0.764685	-0.290963	0.958377
	O8377	O	0.806086	-0.041730	0.899086
	O8378	O	0.756545	-0.040490	0.913348
	O8379	O	0.870983	-0.041481	0.860210
	O8380	O	0.827160	-0.041669	0.895726
	O8381	O	0.872553	-0.291165	0.958840
	O8382	O	0.754272	-0.125438	0.962829
	O8383	O	0.880899	-0.375323	0.855322
	C8384	C	0.855120	-0.286873	0.943093
	C8385	C	0.859574	-0.375790	0.947006
	C8386	C	0.855113	-0.464705	0.943077
	C8387	C	0.846366	-0.464516	0.935416
	C8388	C	0.841875	-0.375526	0.931620
	C8389	C	0.846385	-0.286573	0.935450
	C8390	C	0.832399	-0.375316	0.923473
	C8391	C	0.868887	-0.375388	0.955558
	C8392	C	0.804926	-0.375636	0.926003
	C8393	C	0.795684	-0.375345	0.934078
	C8394	C	0.791227	-0.285613	0.937725
	C8395	C	0.782416	-0.285474	0.944498
	C8396	C	0.777786	-0.375086	0.947806
	C8397	C	0.782274	-0.464800	0.944280
	C8398	C	0.791086	-0.464888	0.937524
	C8399	C	0.768375	-0.375000	0.955398
	C8400	C	0.801809	-0.125635	0.900068
	C8401	C	0.791123	-0.125564	0.902710
	C8402	C	0.786157	-0.035618	0.904446
	C8403	C	0.776458	-0.035303	0.908035
	C8404	C	0.771470	-0.124803	0.909906
	C8405	C	0.776395	-0.214950	0.908090
	C8406	C	0.786111	-0.215281	0.904517
	C8407	C	0.760806	-0.124776	0.912519
	C8408	C	0.830866	-0.125750	0.892809
	C8409	C	0.840293	-0.125749	0.885243
	C8410	C	0.844821	-0.215123	0.881781
	C8411	C	0.853612	-0.215039	0.874971
	C8412	C	0.858133	-0.125518	0.871464
	C8413	C	0.853624	-0.036047	0.874968
	C8414	C	0.844825	-0.036099	0.881777
	C8415	C	0.867397	-0.125441	0.863399
	H8416	H	0.856947	-0.285194	0.872265
	H8417	H	0.841415	-0.284901	0.884362
	H8418	H	0.858476	-0.217996	0.946133
	H8419	H	0.843022	-0.217745	0.932487
	H8420	H	0.815203	-0.375123	0.890897
	H8421	H	0.819263	-0.124535	0.927453
	H8422	H	0.752743	-0.124881	0.953416
	H8423	H	0.881484	-0.375806	0.864968
	H8424	H	0.789834	-0.285414	0.903125
	H8425	H	0.772647	-0.284665	0.909534
	H8426	H	0.779052	-0.215771	0.947250
	H8427	H	0.794664	-0.215574	0.935211
	H8428	H	0.772752	0.034956	0.909440
	H8429	H	0.789886	0.034582	0.903033
	H8430	H	0.794430	-0.535059	0.934807
	H8431	H	0.778832	-0.534717	0.946768
	H8432	H	0.842994	-0.533518	0.932412
	H8433	H	0.858474	-0.533701	0.946051
	H8434	H	0.841464	0.033827	0.884352
	H8435	H	0.856975	0.033855	0.872300
	Al8436	Al	0.817769	0.000228	0.908911
	Al8437	Al	0.817778	0.249055	0.908985
	Al8438	Al	0.744769	0.249758	0.903561
	Al8439	Al	0.744816	0.000661	0.903578
	O8440	O	0.828615	0.041179	0.920418
	O8441	O	0.816830	0.124702	0.900197
	O8442	O	0.818381	0.374605	0.917857
	O8443	O	0.872509	0.040919	0.958857
	O8444	O	0.808465	0.040713	0.922642
	O8445	O	0.764660	0.040609	0.958381
	O8446	O	0.808504	0.208690	0.922766
	O8447	O	0.805998	0.290263	0.899329
	O8448	O	0.756515	0.291250	0.913400
	O8449	O	0.828683	0.209046	0.920332
	O8450	O	0.827122	0.290937	0.895722
	O8451	O	0.871015	0.290655	0.860147
	O8452	O	0.764712	0.208786	0.958372
	O8453	O	0.806006	0.458550	0.899090
	O8454	O	0.756532	0.459641	0.913459
	O8455	O	0.870954	0.458676	0.860148
	O8456	O	0.827172	0.458955	0.895803
	O8457	O	0.872515	0.208938	0.958863
	O8458	O	0.754318	0.374415	0.962795
	O8459	O	0.880922	0.124811	0.855250
	C8460	C	0.855109	0.213963	0.943044
	C8461	C	0.859557	0.124996	0.947009
	C8462	C	0.855059	0.036121	0.943100
	C8463	C	0.846330	0.036036	0.935485
	C8464	C	0.841854	0.124976	0.931591
	C8465	C	0.846382	0.213993	0.935403
	C8466	C	0.832389	0.125152	0.923460
	C8467	C	0.868857	0.124909	0.955560
	C8468	C	0.804878	0.124596	0.925909
	C8469	C	0.795667	0.124391	0.934027
	C8470	C	0.791190	0.213906	0.937671
	C8471	C	0.782396	0.214021	0.944471
	C8472	C	0.777812	0.124469	0.947848
	C8473	C	0.782348	0.034823	0.944363
	C8474	C	0.791144	0.034612	0.937563
	C8475	C	0.768400	0.124539	0.955433
	C8476	C	0.801755	0.374443	0.900109
	C8477	C	0.791107	0.374763	0.902780
	C8478	C	0.786142	0.464760	0.904474
	C8479	C	0.776428	0.464927	0.908039
	C8480	C	0.771448	0.375244	0.909967
	C8481	C	0.776393	0.285390	0.908094
	C8482	C	0.786096	0.285075	0.904555
	C8483	C	0.760760	0.375453	0.912552
	C8484	C	0.830878	0.374809	0.892893
	C8485	C	0.840304	0.374797	0.885303
	C8486	C	0.844843	0.285160	0.881808
	C8487	C	0.853660	0.285065	0.875021
	C8488	C	0.858211	0.374706	0.871511
	C8489	C	0.853734	0.464433	0.875166
	C8490	C	0.844926	0.464391	0.881974
	C8491	C	0.867407	0.374464	0.863351
	H8492	H	0.857023	0.215087	0.872337
	H8493	H	0.841444	0.215246	0.884365
	H8494	H	0.858483	0.282845	0.946036
	H8495	H	0.843003	0.282974	0.932397
	H8496	H	0.815357	0.124445	0.890859
	H8497	H	0.819023	0.374860	0.927462
	H8498	H	0.752775	0.374273	0.953357
	H8499	H	0.881772	0.125231	0.864814
	H8500	H	0.789800	0.214739	0.903207
	H8501	H	0.772655	0.215545	0.909537
	H8502	H	0.779023	0.284074	0.947134
	H8503	H	0.794596	0.283610	0.935031
	H8504	H	0.772731	0.535044	0.909422
	H8505	H	0.789901	0.534600	0.903076
	H8506	H	0.794490	-0.035320	0.934869
	H8507	H	0.778902	-0.034912	0.946948
	H8508	H	0.842907	-0.032980	0.932541
	H8509	H	0.858417	-0.032858	0.946155
	H8510	H	0.841568	0.533941	0.884734
	H8511	H	0.857138	0.534380	0.872636
	Al8512	Al	0.942515	-0.500371	0.044905
	Al8513	Al	0.942537	-0.250183	0.044788
	Al8514	Al	0.882611	-0.250249	-0.028129
	Al8515	Al	0.882635	-0.500137	-0.028111
	O8516	O	0.952134	-0.459288	0.058589
	O8517	O	0.942739	-0.375646	0.036145
	O8518	O	0.942303	-0.125222	0.053528
	O8519	O	0.992026	-0.459151	0.105393
	O8520	O	0.932392	-0.459052	0.056780
	O8521	O	0.890270	-0.459375	0.095574
	O8522	O	0.932315	-0.290954	0.056642
	O8523	O	0.932859	-0.209408	0.031113
	O8524	O	0.892453	-0.209487	-0.014758
	O8525	O	0.952182	-0.291181	0.058511
	O8526	O	0.952732	-0.209046	0.032894
	O8527	O	0.994752	-0.209564	-0.005939
	O8528	O	0.890275	-0.291019	0.095503
	O8529	O	0.932831	-0.041387	0.031152
	O8530	O	0.892468	-0.041403	-0.014808
	O8531	O	0.994775	-0.041274	-0.005885
	O8532	O	0.952743	-0.040767	0.033033
	O8533	O	0.991964	-0.290987	0.105500
	O8534	O	0.880265	-0.125368	0.098730
	O8535	O	1.004823	-0.375128	-0.008967
	C8536	C	0.976012	-0.285902	0.086656
	C8537	C	0.980120	-0.375034	0.091424
	C8538	C	0.976078	-0.464337	0.086604
	C8539	C	0.968154	-0.464458	0.077247
	C8540	C	0.964055	-0.375416	0.072511
	C8541	C	0.968099	-0.285965	0.077285
	C8542	C	0.955539	-0.375173	0.062399
	C8543	C	0.988607	-0.375079	0.101590
	C8544	C	0.928786	-0.375039	0.059862
	C8545	C	0.919797	-0.375239	0.068298
	C8546	C	0.915488	-0.286255	0.072266
	C8547	C	0.907126	-0.286293	0.080029
	C8548	C	0.902826	-0.375333	0.083940
	C8549	C	0.907132	-0.464540	0.079987
	C8550	C	0.915498	-0.464564	0.072228
	C8551	C	0.893823	-0.375068	0.092338
	C8552	C	0.929462	-0.125395	0.027347
	C8553	C	0.920807	-0.125444	0.017393
	C8554	C	0.916700	-0.036352	0.012702
	C8555	C	0.908660	-0.036417	0.003557
	C8556	C	0.904541	-0.125512	-0.001100
	C8557	C	0.908667	-0.214528	0.003569
	C8558	C	0.916710	-0.214489	0.012725
	C8559	C	0.895894	-0.125377	-0.011004
	C8560	C	0.956298	-0.124812	0.029797
	C8561	C	0.965281	-0.124700	0.021342
	C8562	C	0.969591	-0.214163	0.017487
	C8563	C	0.977961	-0.214155	0.009725
	C8564	C	0.982236	-0.124976	0.005727
	C8565	C	0.977914	-0.035538	0.009593
	C8566	C	0.969542	-0.035458	0.017350
	C8567	C	0.991239	-0.125285	-0.002682
	H8568	H	0.981270	-0.283096	0.006795
	H8569	H	0.966381	-0.283184	0.020612
	H8570	H	0.979019	-0.216561	0.090360
	H8571	H	0.964983	-0.216862	0.073630
	H8572	H	0.942866	-0.375559	0.026564
	H8573	H	0.941992	-0.125380	0.063122
	H8574	H	0.880559	-0.125074	0.089206
	H8575	H	1.004828	-0.374914	0.000589
	H8576	H	0.919820	-0.283505	0.016303
	H8577	H	0.905580	-0.283620	0.000037
	H8578	H	0.903903	-0.217111	0.083068
	H8579	H	0.918673	-0.216632	0.069173
	H8580	H	0.905537	0.032834	-0.000023
	H8581	H	0.919814	0.032709	0.016244
	H8582	H	0.918735	-0.533684	0.069098
	H8583	H	0.903920	-0.533568	0.083032
	H8584	H	0.965125	-0.533710	0.073589
	H8585	H	0.979136	-0.533447	0.090266
	H8586	H	0.966307	0.033514	0.020366
	H8587	H	0.981175	0.033817	0.006602
	Al8588	Al	0.942518	-0.000213	0.044871
	Al8589	Al	0.942561	0.250010	0.044865
	Al8590	Al	0.882642	0.249628	-0.028152
	Al8591	Al	0.882579	-0.000478	-0.028127
	O8592	O	0.952119	0.040389	0.058589
	O8593	O	0.942724	0.124799	0.036194
	O8594	O	0.942328	0.374705	0.053609
	O8595	O	0.992024	0.040503	0.105433
	O8596	O	0.932343	0.040458	0.056765
	O8597	O	0.890248	0.040382	0.095508
	O8598	O	0.932311	0.208636	0.056686
	O8599	O	0.932908	0.290590	0.031117
	O8600	O	0.892579	0.289997	-0.014798
	O8601	O	0.952153	0.208572	0.058659
	O8602	O	0.952765	0.290870	0.033063
	O8603	O	0.994740	0.290439	-0.005937
	O8604	O	0.890193	0.208397	0.095476
	O8605	O	0.932824	0.458660	0.031258
	O8606	O	0.892498	0.458137	-0.014863
	O8607	O	0.994781	0.458567	-0.005865
	O8608	O	0.952782	0.458860	0.033054
	O8609	O	0.992066	0.208525	0.105305
	O8610	O	0.880335	0.374988	0.098672
	O8611	O	1.004863	0.124789	-0.008998
	C8612	C	0.976083	0.212936	0.086627
	C8613	C	0.980148	0.124033	0.091386
	C8614	C	0.976079	0.034908	0.086640
	C8615	C	0.968147	0.034973	0.077288
	C8616	C	0.964091	0.124051	0.072527
	C8617	C	0.968157	0.212996	0.077292
	C8618	C	0.955540	0.124457	0.062433
	C8619	C	0.988671	0.124329	0.101522
	C8620	C	0.928765	0.124616	0.059899
	C8621	C	0.919777	0.124433	0.068317
	C8622	C	0.915444	0.213306	0.072225
	C8623	C	0.907074	0.213105	0.079938
	C8624	C	0.902794	0.124162	0.083914
	C8625	C	0.907142	0.035274	0.080029
	C8626	C	0.915507	0.035285	0.072311
	C8627	C	0.893793	0.124233	0.092307
	C8628	C	0.929461	0.374677	0.027330
	C8629	C	0.920804	0.374803	0.017453
	C8630	C	0.916689	0.463651	0.012752
	C8631	C	0.908669	0.463583	0.003571
	C8632	C	0.904591	0.374498	-0.001146
	C8633	C	0.908685	0.285503	0.003599
	C8634	C	0.916701	0.285779	0.012773
	C8635	C	0.895950	0.374415	-0.011058
	C8636	C	0.956297	0.374836	0.029810
	C8637	C	0.965259	0.374531	0.021361
	C8638	C	0.969566	0.285362	0.017472
	C8639	C	0.977919	0.285312	0.009698
	C8640	C	0.982200	0.374533	0.005710
	C8641	C	0.977883	0.463578	0.009607
	C8642	C	0.969516	0.463681	0.017366
	C8643	C	0.991190	0.374369	-0.002732
	H8644	H	0.981128	0.216365	0.006680
	H8645	H	0.966324	0.216529	0.020552
	H8646	H	0.979137	0.281995	0.090290
	H8647	H	0.965133	0.282394	0.073603
	H8648	H	0.942901	0.124664	0.026677
	H8649	H	0.942064	0.374450	0.063188
	H8650	H	0.880829	0.375621	0.089162
	H8651	H	1.004652	0.124935	0.000588
	H8652	H	0.919817	0.216888	0.016380
	H8653	H	0.905600	0.216525	-0.000016
	H8654	H	0.903823	0.281918	0.082982
	H8655	H	0.918686	0.282143	0.069128
	H8656	H	0.905554	0.532574	-0.000040
	H8657	H	0.919794	0.532869	0.016278
	H8658	H	0.918773	-0.033623	0.069279
	H8659	H	0.903937	-0.033615	0.083112
	H8660	H	0.965089	-0.033881	0.073623
	H8661	H	0.979097	-0.034003	0.090319
	H8662	H	0.966237	0.532613	0.020358
	H8663	H	0.981088	0.532657	0.006450
	Al8664	Al	0.939181	-0.500484	0.181764
	Al8665	Al	0.939181	-0.250294	0.181748
	Al8666	Al	0.880077	-0.250157	0.107415
	Al8667	Al	0.880053	-0.499963	0.107408
	O8668	O	0.948856	-0.459238	0.195399
	O8669	O	0.939437	-0.375321	0.173052
	O8670	O	0.938947	-0.125233	0.190424
	O8671	O	0.988646	-0.459080	0.242327
	O8672	O	0.928950	-0.458973	0.193585
	O8673	O	0.886955	-0.458760	0.232503
	O8674	O	0.928970	-0.290957	0.193618
	O8675	O	0.929544	-0.209323	0.167982
	O8676	O	0.889700	-0.208863	0.121120
	O8677	O	0.948815	-0.291373	0.195459
	O8678	O	0.949425	-0.209323	0.169855
	O8679	O	0.991486	-0.208880	0.130994
	O8680	O	0.886892	-0.290874	0.232485
	O8681	O	0.929580	-0.041296	0.167965
	O8682	O	0.889663	-0.040945	0.121167
	O8683	O	0.991457	-0.040899	0.130952
	O8684	O	0.949388	-0.041310	0.169868
	O8685	O	0.988690	-0.291115	0.242334
	O8686	O	0.876877	-0.125000	0.235682
	O8687	O	1.001413	-0.375310	0.127837
	C8688	C	0.972685	-0.286094	0.223584
	C8689	C	0.976731	-0.375043	0.228387
	C8690	C	0.972714	-0.464332	0.223581
	C8691	C	0.964798	-0.464252	0.214220
	C8692	C	0.960729	-0.375182	0.209456
	C8693	C	0.964766	-0.286089	0.214238
	C8694	C	0.952185	-0.375349	0.199313
	C8695	C	0.985284	-0.375174	0.238455
	C8696	C	0.925403	-0.374992	0.196794
	C8697	C	0.916425	-0.374796	0.205235
	C8698	C	0.912092	-0.285911	0.209082
	C8699	C	0.903745	-0.285548	0.216860
	C8700	C	0.899481	-0.374323	0.220871
	C8701	C	0.903780	-0.463181	0.216951
	C8702	C	0.912128	-0.463591	0.209204
	C8703	C	0.890484	-0.374498	0.229292
	C8704	C	0.926177	-0.125119	0.164145
	C8705	C	0.917685	-0.125114	0.153927
	C8706	C	0.913601	-0.036069	0.149214
	C8707	C	0.905682	-0.035717	0.139878
	C8708	C	0.901581	-0.124776	0.135154
	C8709	C	0.905690	-0.213758	0.139842
	C8710	C	0.913607	-0.214040	0.149178
	C8711	C	0.893052	-0.124917	0.125004
	C8712	C	0.952966	-0.125319	0.166681
	C8713	C	0.961965	-0.125090	0.158244
	C8714	C	0.966213	-0.213941	0.154237
	C8715	C	0.974574	-0.213720	0.146476
	C8716	C	0.978916	-0.124734	0.142626
	C8717	C	0.974657	-0.035785	0.146658
	C8718	C	0.966305	-0.036144	0.154417
	C8719	C	0.987917	-0.124778	0.134183
	H8720	H	0.977804	-0.282671	0.143384
	H8721	H	0.962905	-0.282895	0.157209
	H8722	H	0.975757	-0.216785	0.227200
	H8723	H	0.961721	-0.216990	0.210558
	H8724	H	0.939708	-0.374839	0.163461
	H8725	H	0.938501	-0.124861	0.200021
	H8726	H	0.877097	-0.124933	0.226128
	H8727	H	1.001276	-0.375064	0.137377
	H8728	H	0.916641	-0.283107	0.152821
	H8729	H	0.902628	-0.282800	0.136180
	H8730	H	0.900476	-0.216634	0.219849
	H8731	H	0.915300	-0.217166	0.205922
	H8732	H	0.902641	0.033549	0.136218
	H8733	H	0.916655	0.032864	0.152919
	H8734	H	0.915353	-0.532629	0.206154
	H8735	H	0.900525	-0.531827	0.220040
	H8736	H	0.961779	-0.533584	0.210515
	H8737	H	0.975785	-0.533372	0.227239
	H8738	H	0.963101	0.032739	0.157570
	H8739	H	0.977944	0.033075	0.143734
	Al8740	Al	0.939215	-0.000498	0.181712
	Al8741	Al	0.939187	0.249657	0.181785
	Al8742	Al	0.880065	0.249876	0.107410
	Al8743	Al	0.880012	-0.000091	0.107407
	O8744	O	0.948811	0.040842	0.195441
	O8745	O	0.939401	0.124605	0.173079
	O8746	O	0.938978	0.374503	0.190507
	O8747	O	0.988656	0.040730	0.242358
	O8748	O	0.928945	0.040620	0.193551
	O8749	O	0.886973	0.040877	0.232548
	O8750	O	0.928974	0.208822	0.193629
	O8751	O	0.929555	0.290855	0.168083
	O8752	O	0.889734	0.290715	0.121106
	O8753	O	0.948827	0.208831	0.195432
	O8754	O	0.949394	0.290346	0.169927
	O8755	O	0.991382	0.290554	0.130881
	O8756	O	0.886881	0.208930	0.232413
	O8757	O	0.929613	0.458684	0.167949
	O8758	O	0.889676	0.458634	0.121136
	O8759	O	0.991422	0.458494	0.130996
	O8760	O	0.949427	0.458649	0.169978
	O8761	O	0.988668	0.208906	0.242331
	O8762	O	0.876901	0.374983	0.235589
	O8763	O	1.001482	0.125087	0.127769
	C8764	C	0.972736	0.214163	0.223495
	C8765	C	0.976765	0.125123	0.228335
	C8766	C	0.972675	0.036131	0.223612
	C8767	C	0.964750	0.035843	0.214259
	C8768	C	0.960737	0.124840	0.209387
	C8769	C	0.964807	0.213852	0.214148
	C8770	C	0.952189	0.124742	0.199282
	C8771	C	0.985335	0.124742	0.238414
	C8772	C	0.925420	0.124756	0.196812
	C8773	C	0.916419	0.124592	0.205195
	C8774	C	0.912120	0.213465	0.209071
	C8775	C	0.903743	0.213520	0.216831
	C8776	C	0.899485	0.124777	0.220868
	C8777	C	0.903767	0.035820	0.216966
	C8778	C	0.912142	0.035757	0.209188
	C8779	C	0.890491	0.124857	0.229300
	C8780	C	0.926184	0.374644	0.164162
	C8781	C	0.917679	0.374877	0.154047
	C8782	C	0.913570	0.463747	0.149317
	C8783	C	0.905650	0.463597	0.140000
	C8784	C	0.901577	0.374869	0.135187
	C8785	C	0.905703	0.286197	0.139885
	C8786	C	0.913613	0.286202	0.149224
	C8787	C	0.893088	0.374713	0.124996
	C8788	C	0.952963	0.374583	0.166753
	C8789	C	0.961973	0.374425	0.158346
	C8790	C	0.966209	0.285312	0.154266
	C8791	C	0.974572	0.285299	0.146472
	C8792	C	0.978887	0.374502	0.142636
	C8793	C	0.974633	0.463543	0.146680
	C8794	C	0.966272	0.463587	0.154467
	C8795	C	0.987857	0.374664	0.134145
	H8796	H	0.977743	0.216309	0.143288
	H8797	H	0.962911	0.216123	0.157150
	H8798	H	0.975789	0.283152	0.227079
	H8799	H	0.961793	0.282680	0.210432
	H8800	H	0.939600	0.125274	0.163533
	H8801	H	0.938743	0.374500	0.200118
	H8802	H	0.877021	0.375452	0.225998
	H8803	H	1.001376	0.124981	0.137350
	H8804	H	0.916681	0.217511	0.152835
	H8805	H	0.902682	0.217034	0.136171
	H8806	H	0.900503	0.282391	0.219837
	H8807	H	0.915369	0.282424	0.206030
	H8808	H	0.902552	0.532509	0.136331
	H8809	H	0.916605	0.532874	0.153012
	H8810	H	0.915402	-0.032880	0.206237
	H8811	H	0.900554	-0.033266	0.220073
	H8812	H	0.961700	-0.033250	0.210645
	H8813	H	0.975737	-0.032966	0.227300
	H8814	H	0.963062	0.532607	0.157563
	H8815	H	0.977897	0.532711	0.143717
	Al8816	Al	0.935752	-0.500184	0.318617
	Al8817	Al	0.935829	-0.249972	0.318575
	Al8818	Al	0.876679	-0.250053	0.244358
	Al8819	Al	0.876711	-0.499903	0.244268
	O8820	O	0.945393	-0.458985	0.332361
	O8821	O	0.936010	-0.375046	0.309874
	O8822	O	0.935569	-0.125105	0.327316
	O8823	O	0.985315	-0.458977	0.379168
	O8824	O	0.925568	-0.459161	0.330459
	O8825	O	0.883539	-0.459212	0.369225
	O8826	O	0.925552	-0.290966	0.330370
	O8827	O	0.926174	-0.209096	0.304835
	O8828	O	0.886362	-0.209453	0.258015
	O8829	O	0.945472	-0.290673	0.332272
	O8830	O	0.946017	-0.209652	0.306672
	O8831	O	0.988089	-0.209387	0.267863
	O8832	O	0.883474	-0.291261	0.369186
	O8833	O	0.926152	-0.041050	0.304897
	O8834	O	0.886292	-0.041178	0.258066
	O8835	O	0.988047	-0.041099	0.267838
	O8836	O	0.946042	-0.041274	0.306737
	O8837	O	0.985361	-0.290608	0.379157
	O8838	O	0.873500	-0.124961	0.372398
	O8839	O	0.998068	-0.375135	0.264745
	C8840	C	0.969390	-0.285695	0.360378
	C8841	C	0.973429	-0.374824	0.365162
	C8842	C	0.969350	-0.464017	0.360425
	C8843	C	0.961409	-0.463872	0.351094
	C8844	C	0.957362	-0.374785	0.346326
	C8845	C	0.961461	-0.285617	0.351027
	C8846	C	0.948821	-0.374889	0.336182
	C8847	C	0.981970	-0.374626	0.375287
	C8848	C	0.922035	-0.374817	0.333650
	C8849	C	0.913050	-0.374866	0.342123
	C8850	C	0.908767	-0.285701	0.346059
	C8851	C	0.900375	-0.285586	0.353774
	C8852	C	0.896094	-0.374851	0.357696
	C8853	C	0.900367	-0.463840	0.353741
	C8854	C	0.908748	-0.463935	0.346020
	C8855	C	0.887063	-0.375205	0.366025
	C8856	C	0.922801	-0.125064	0.300995
	C8857	C	0.914279	-0.125299	0.290877
	C8858	C	0.910174	-0.036303	0.286191
	C8859	C	0.902250	-0.036428	0.276856
	C8860	C	0.898235	-0.125379	0.271992
	C8861	C	0.902350	-0.214437	0.276669
	C8862	C	0.910271	-0.214427	0.286020
	C8863	C	0.889693	-0.125315	0.261912
	C8864	C	0.949592	-0.125327	0.303545
	C8865	C	0.958588	-0.125531	0.295133
	C8866	C	0.962907	-0.214782	0.291224
	C8867	C	0.971277	-0.214608	0.283472
	C8868	C	0.975559	-0.125331	0.279508
	C8869	C	0.971249	-0.036233	0.283438
	C8870	C	0.962885	-0.036251	0.291195
	C8871	C	0.984509	-0.125357	0.271046
	H8872	H	0.974560	-0.283607	0.280448
	H8873	H	0.959676	-0.283845	0.294253
	H8874	H	0.972441	-0.216618	0.363995
	H8875	H	0.958431	-0.216287	0.347359
	H8876	H	0.936196	-0.374921	0.300304
	H8877	H	0.935209	-0.124846	0.336832
	H8878	H	0.873832	-0.125208	0.362797
	H8879	H	0.997874	-0.374669	0.274308
	H8880	H	0.913360	-0.283216	0.289639
	H8881	H	0.899342	-0.283317	0.272963
	H8882	H	0.897121	-0.216573	0.356784
	H8883	H	0.911994	-0.216861	0.342961
	H8884	H	0.899134	0.032598	0.273273
	H8885	H	0.913193	0.032583	0.289955
	H8886	H	0.911953	-0.532984	0.342966
	H8887	H	0.897105	-0.533020	0.356671
	H8888	H	0.958341	-0.532884	0.347426
	H8889	H	0.972391	-0.533220	0.364050
	H8890	H	0.959606	0.032814	0.294144
	H8891	H	0.974468	0.033134	0.280411
	Al8892	Al	0.935820	-0.000154	0.318616
	Al8893	Al	0.935782	0.249694	0.318623
	Al8894	Al	0.876712	0.249992	0.244294
	Al8895	Al	0.876724	0.000158	0.244311
	O8896	O	0.945428	0.040526	0.332330
	O8897	O	0.936020	0.124991	0.309909
	O8898	O	0.935618	0.374564	0.327313
	O8899	O	0.985342	0.040752	0.379166
	O8900	O	0.925586	0.041132	0.330454
	O8901	O	0.883472	0.040983	0.369219
	O8902	O	0.925547	0.209185	0.330444
	O8903	O	0.926154	0.290740	0.304889
	O8904	O	0.886409	0.290719	0.257936
	O8905	O	0.945438	0.208570	0.332288
	O8906	O	0.945989	0.290801	0.306743
	O8907	O	0.988091	0.290651	0.267952
	O8908	O	0.883502	0.209380	0.369219
	O8909	O	0.926120	0.458998	0.304960
	O8910	O	0.886279	0.458960	0.258060
	O8911	O	0.988070	0.458748	0.267871
	O8912	O	0.946035	0.458729	0.306826
	O8913	O	0.985300	0.208694	0.379116
	O8914	O	0.873491	0.375125	0.372366
	O8915	O	0.998065	0.124725	0.264751
	C8916	C	0.969404	0.213343	0.360273
	C8917	C	0.973392	0.124363	0.365198
	C8918	C	0.969277	0.035358	0.360520
	C8919	C	0.961350	0.035396	0.351189
	C8920	C	0.957325	0.124408	0.346320
	C8921	C	0.961484	0.213190	0.350936
	C8922	C	0.948795	0.124658	0.336188
	C8923	C	0.981925	0.124483	0.375320
	C8924	C	0.922018	0.125127	0.333644
	C8925	C	0.913002	0.124729	0.342077
	C8926	C	0.908694	0.213873	0.345990
	C8927	C	0.900323	0.213895	0.353719
	C8928	C	0.896073	0.124798	0.357711
	C8929	C	0.900363	0.035522	0.353784
	C8930	C	0.908738	0.035502	0.346028
	C8931	C	0.887042	0.125138	0.366046
	C8932	C	0.922769	0.374781	0.301024
	C8933	C	0.914263	0.374966	0.290911
	C8934	C	0.910176	0.464150	0.286224
	C8935	C	0.902274	0.464353	0.276855
	C8936	C	0.898257	0.375208	0.271974
	C8937	C	0.902332	0.285956	0.276697
	C8938	C	0.910237	0.285704	0.286069
	C8939	C	0.889726	0.375027	0.261831
	C8940	C	0.949547	0.374786	0.303594
	C8941	C	0.958578	0.374786	0.295216
	C8942	C	0.962905	0.285941	0.291313
	C8943	C	0.971260	0.285815	0.283546
	C8944	C	0.975507	0.374696	0.279505
	C8945	C	0.971212	0.463734	0.283458
	C8946	C	0.962854	0.463778	0.291235
	C8947	C	0.984492	0.374748	0.271080
	H8948	H	0.974490	0.216889	0.280520
	H8949	H	0.959685	0.217131	0.294439
	H8950	H	0.972507	0.281927	0.363845
	H8951	H	0.958475	0.282029	0.347187
	H8952	H	0.936178	0.124749	0.300368
	H8953	H	0.935393	0.374834	0.336855
	H8954	H	0.873741	0.374938	0.362820
	H8955	H	0.997738	0.124825	0.274301
	H8956	H	0.913321	0.216557	0.289707
	H8957	H	0.899296	0.216792	0.272982
	H8958	H	0.897077	0.282971	0.356665
	H8959	H	0.911903	0.282874	0.342908
	H8960	H	0.899175	0.533385	0.273284
	H8961	H	0.913201	0.533246	0.289922
	H8962	H	0.911979	-0.033460	0.342956
	H8963	H	0.897114	-0.033478	0.356845
	H8964	H	0.958231	-0.033568	0.347654
	H8965	H	0.972299	-0.033576	0.364254
	H8966	H	0.959620	0.532596	0.294290
	H8967	H	0.974424	0.532504	0.280334
	Al8968	Al	0.932384	-0.499897	0.455232
	Al8969	Al	0.932485	-0.249839	0.455227
	Al8970	Al	0.873292	-0.250034	0.381116
	Al8971	Al	0.873309	-0.499713	0.381073
	O8972	O	0.942109	-0.459308	0.468866
	O8973	O	0.932670	-0.375028	0.446535
	O8974	O	0.932277	-0.124897	0.463926
	O8975	O	0.982542	-0.459174	0.514723
	O8976	O	0.922235	-0.458720	0.467179
	O8977	O	0.880131	-0.458777	0.505866
	O8978	O	0.922194	-0.290621	0.467055
	O8979	O	0.922846	-0.208836	0.441481
	O8980	O	0.882914	-0.208817	0.394776
	O8981	O	0.942139	-0.291047	0.468864
	O8982	O	0.942654	-0.209356	0.443294
	O8983	O	0.984819	-0.209272	0.404707
	O8984	O	0.880107	-0.290650	0.505890
	O8985	O	0.922845	-0.040513	0.441518
	O8986	O	0.882862	-0.040778	0.394867
	O8987	O	0.984816	-0.040707	0.404710
	O8988	O	0.942715	-0.041019	0.443382
	O8989	O	0.982506	-0.291113	0.514814
	O8990	O	0.870083	-0.125207	0.509009
	O8991	O	0.994830	-0.375045	0.401527
	C8992	C	0.966336	-0.285766	0.496416
	C8993	C	0.970439	-0.375025	0.501107
	C8994	C	0.966336	-0.464197	0.496390
	C8995	C	0.958302	-0.464136	0.487238
	C8996	C	0.954137	-0.375024	0.482633
	C8997	C	0.958299	-0.285801	0.487278
	C8998	C	0.945529	-0.375266	0.472699
	C8999	C	0.979069	-0.375407	0.511007
	C9000	C	0.918689	-0.374527	0.470328
	C9001	C	0.909662	-0.374791	0.478692
	C9002	C	0.905392	-0.285701	0.482642
	C9003	C	0.897007	-0.285578	0.490401
	C9004	C	0.892713	-0.374490	0.494343
	C9005	C	0.896965	-0.463555	0.490315
	C9006	C	0.905336	-0.463805	0.482562
	C9007	C	0.883701	-0.374812	0.502711
	C9008	C	0.919476	-0.124782	0.437640
	C9009	C	0.910917	-0.124669	0.427578
	C9010	C	0.906811	-0.035569	0.422890
	C9011	C	0.898868	-0.035492	0.413570
	C9012	C	0.894813	-0.124630	0.408775
	C9013	C	0.898903	-0.213730	0.413492
	C9014	C	0.906831	-0.213837	0.422801
	C9015	C	0.886290	-0.124906	0.398641
	C9016	C	0.946254	-0.125216	0.440181
	C9017	C	0.955289	-0.125461	0.431802
	C9018	C	0.959588	-0.214719	0.427865
	C9019	C	0.967971	-0.214505	0.420137
	C9020	C	0.972284	-0.125093	0.416312
	C9021	C	0.967936	-0.035844	0.420170
	C9022	C	0.959549	-0.036160	0.427858
	C9023	C	0.981266	-0.125177	0.407886
	H9024	H	0.971196	-0.283521	0.417036
	H9025	H	0.956316	-0.283797	0.430797
	H9026	H	0.969447	-0.216701	0.499960
	H9027	H	0.955206	-0.216859	0.483670
	H9028	H	0.933038	-0.374078	0.437020
	H9029	H	0.932010	-0.124755	0.473459
	H9030	H	0.870411	-0.125623	0.499424
	H9031	H	0.994629	-0.374312	0.411101
	H9032	H	0.909920	-0.282834	0.426328
	H9033	H	0.895865	-0.283114	0.409751
	H9034	H	0.893803	-0.216556	0.493448
	H9035	H	0.908687	-0.216593	0.479678
	H9036	H	0.895827	0.033518	0.409892
	H9037	H	0.909891	0.033587	0.426520
	H9038	H	0.908558	-0.532765	0.479554
	H9039	H	0.893697	-0.532589	0.493307
	H9040	H	0.955198	-0.533260	0.483676
	H9041	H	0.969464	-0.533348	0.499968
	H9042	H	0.956270	0.032854	0.430831
	H9043	H	0.971167	0.033075	0.417161
	Al9044	Al	0.932513	0.000180	0.455210
	Al9045	Al	0.932439	0.249953	0.455264
	Al9046	Al	0.873272	0.250084	0.381034
	Al9047	Al	0.873230	0.000107	0.381096
	O9048	O	0.942167	0.040797	0.468954
	O9049	O	0.932664	0.125018	0.446521
	O9050	O	0.932246	0.375026	0.463929
	O9051	O	0.982530	0.040835	0.514921
	O9052	O	0.922316	0.040634	0.467155
	O9053	O	0.880164	0.040795	0.505823
	O9054	O	0.922291	0.208874	0.467239
	O9055	O	0.922810	0.290951	0.441560
	O9056	O	0.882932	0.290812	0.394757
	O9057	O	0.942170	0.209173	0.468917
	O9058	O	0.942622	0.291193	0.443341
	O9059	O	0.984795	0.290984	0.404778
	O9060	O	0.880196	0.208995	0.505840
	O9061	O	0.922715	0.459095	0.441624
	O9062	O	0.882922	0.458861	0.394822
	O9063	O	0.984795	0.459315	0.404758
	O9064	O	0.942650	0.459177	0.443465
	O9065	O	0.982554	0.209074	0.514781
	O9066	O	0.870117	0.375348	0.508957
	O9067	O	0.994725	0.125177	0.401486
	C9068	C	0.966391	0.213720	0.496456
	C9069	C	0.970469	0.124773	0.501148
	C9070	C	0.966349	0.035833	0.496494
	C9071	C	0.958320	0.035833	0.487331
	C9072	C	0.954224	0.124779	0.482658
	C9073	C	0.958355	0.213828	0.487302
	C9074	C	0.945591	0.125045	0.472688
	C9075	C	0.979119	0.124841	0.511083
	C9076	C	0.918749	0.124594	0.470364
	C9077	C	0.909727	0.124418	0.478743
	C9078	C	0.905453	0.213531	0.482680
	C9079	C	0.897068	0.213457	0.490364
	C9080	C	0.892751	0.124454	0.494263
	C9081	C	0.897052	0.035298	0.490395
	C9082	C	0.905446	0.035406	0.482695
	C9083	C	0.883733	0.124790	0.502646
	C9084	C	0.919375	0.374772	0.437763
	C9085	C	0.910865	0.374788	0.427615
	C9086	C	0.906776	0.464010	0.422865
	C9087	C	0.898871	0.463887	0.413529
	C9088	C	0.894817	0.374507	0.408727
	C9089	C	0.898913	0.285238	0.413438
	C9090	C	0.906839	0.285490	0.422760
	C9091	C	0.886273	0.374919	0.398633
	C9092	C	0.946213	0.375189	0.440244
	C9093	C	0.955221	0.375014	0.431841
	C9094	C	0.959510	0.285763	0.427875
	C9095	C	0.967915	0.285627	0.420183
	C9096	C	0.972224	0.375002	0.416327
	C9097	C	0.967954	0.464225	0.420330
	C9098	C	0.959558	0.464169	0.428014
	C9099	C	0.981238	0.375125	0.407946
	H9100	H	0.971128	0.216907	0.417090
	H9101	H	0.956267	0.216761	0.430869
	H9102	H	0.969513	0.282654	0.500008
	H9103	H	0.955319	0.282467	0.483646
	H9104	H	0.932785	0.126310	0.436947
	H9105	H	0.932138	0.374886	0.473484
	H9106	H	0.870230	0.374735	0.499357
	H9107	H	0.994363	0.126069	0.411048
	H9108	H	0.909896	0.216622	0.426430
	H9109	H	0.895865	0.216006	0.409744
	H9110	H	0.893835	0.282344	0.493431
	H9111	H	0.908719	0.282504	0.479694
	H9112	H	0.895774	0.532892	0.409894
	H9113	H	0.909769	0.533232	0.426564
	H9114	H	0.908700	-0.033330	0.479661
	H9115	H	0.893802	-0.033595	0.493405
	H9116	H	0.955258	-0.032946	0.483665
	H9117	H	0.969454	-0.032869	0.500065
	H9118	H	0.956337	0.533086	0.431171
	H9119	H	0.971229	0.533478	0.417414
	Al9120	Al	0.929878	-0.500057	0.590588
	Al9121	Al	0.929898	-0.249781	0.590522
	Al9122	Al	0.869873	-0.250173	0.517724
	Al9123	Al	0.869938	-0.499745	0.517713
	O9124	O	0.939987	-0.458757	0.603569
	O9125	O	0.930013	-0.375227	0.581794
	O9126	O	0.929831	-0.125027	0.599227
	O9127	O	0.983850	-0.458808	0.642121
	O9128	O	0.919832	-0.459135	0.602671
	O9129	O	0.877480	-0.458908	0.641002
	O9130	O	0.919839	-0.291071	0.602614
	O9131	O	0.920089	-0.209232	0.577046
	O9132	O	0.879549	-0.209163	0.531359
	O9133	O	0.939975	-0.290765	0.603612
	O9134	O	0.940026	-0.208572	0.578497
	O9135	O	0.982369	-0.208460	0.540300
	O9136	O	0.877545	-0.290603	0.641098
	O9137	O	0.920033	-0.041081	0.577136
	O9138	O	0.879587	-0.041143	0.531352
	O9139	O	0.982399	-0.040632	0.540376
	O9140	O	0.939989	-0.040572	0.578451
	O9141	O	0.983862	-0.291279	0.642212
	O9142	O	0.867423	-0.125269	0.644425
	O9143	O	0.992356	-0.375141	0.536938
	C9144	C	0.966167	-0.285974	0.626998
	C9145	C	0.970669	-0.374954	0.630863
	C9146	C	0.966184	-0.463880	0.626904
	C9147	C	0.957476	-0.463859	0.619225
	C9148	C	0.952976	-0.374856	0.615344
	C9149	C	0.957445	-0.286116	0.619325
	C9150	C	0.943651	-0.374856	0.606847
	C9151	C	0.980105	-0.374998	0.639083
	C9152	C	0.916264	-0.375104	0.605812
	C9153	C	0.907233	-0.374880	0.614200
	C9154	C	0.902940	-0.285888	0.618098
	C9155	C	0.894527	-0.285764	0.625757
	C9156	C	0.890152	-0.374664	0.629594
	C9157	C	0.894446	-0.463670	0.625673
	C9158	C	0.902881	-0.463683	0.618039
	C9159	C	0.881121	-0.374600	0.637935
	C9160	C	0.916620	-0.125197	0.573328
	C9161	C	0.907941	-0.125198	0.563494
	C9162	C	0.903769	-0.036112	0.558891
	C9163	C	0.895728	-0.036336	0.549784
	C9164	C	0.891631	-0.125357	0.545082
	C9165	C	0.895762	-0.214464	0.549744
	C9166	C	0.903810	-0.214376	0.558844
	C9167	C	0.882998	-0.125029	0.535121
	C9168	C	0.943594	-0.124637	0.575345
	C9169	C	0.952677	-0.124583	0.567127
	C9170	C	0.957016	-0.213594	0.563247
	C9171	C	0.965463	-0.213469	0.555686
	C9172	C	0.969798	-0.124456	0.551844
	C9173	C	0.965490	-0.035369	0.555739
	C9174	C	0.957041	-0.035547	0.563319
	C9175	C	0.978827	-0.124545	0.543528
	H9176	H	0.968718	-0.282511	0.552674
	H9177	H	0.953738	-0.282836	0.566189
	H9178	H	0.969531	-0.217207	0.630075
	H9179	H	0.954038	-0.217383	0.616346
	H9180	H	0.930058	-0.375140	0.572238
	H9181	H	0.929959	-0.124654	0.608834
	H9182	H	0.867571	-0.125669	0.634818
	H9183	H	0.992501	-0.374675	0.546490
	H9184	H	0.906926	-0.283391	0.562406
	H9185	H	0.892642	-0.283559	0.546119
	H9186	H	0.891308	-0.216821	0.628773
	H9187	H	0.906245	-0.216894	0.615152
	H9188	H	0.892626	0.032751	0.546213
	H9189	H	0.906843	0.032814	0.562479
	H9190	H	0.906129	-0.532321	0.615020
	H9191	H	0.891177	-0.532318	0.628649
	H9192	H	0.954100	-0.532872	0.616163
	H9193	H	0.969590	-0.532856	0.629855
	H9194	H	0.953769	0.033283	0.566320
	H9195	H	0.968773	0.033648	0.552779
	Al9196	Al	0.929865	0.000171	0.590545
	Al9197	Al	0.929848	0.250261	0.590609
	Al9198	Al	0.869970	0.249980	0.517650
	Al9199	Al	0.869926	0.000091	0.517683
	O9200	O	0.939956	0.040637	0.603601
	O9201	O	0.929880	0.125263	0.581803
	O9202	O	0.929837	0.374902	0.599337
	O9203	O	0.983852	0.041008	0.642107
	O9204	O	0.919849	0.040636	0.602803
	O9205	O	0.877445	0.040621	0.641003
	O9206	O	0.919837	0.208628	0.602812
	O9207	O	0.919968	0.291138	0.577305
	O9208	O	0.879621	0.291019	0.531321
	O9209	O	0.939940	0.208674	0.603611
	O9210	O	0.939940	0.290768	0.578530
	O9211	O	0.982411	0.290974	0.540362
	O9212	O	0.877457	0.208760	0.641010
	O9213	O	0.920026	0.459332	0.577157
	O9214	O	0.879600	0.459357	0.531383
	O9215	O	0.982303	0.458884	0.540273
	O9216	O	0.940020	0.458886	0.578529
	O9217	O	0.983868	0.208901	0.641998
	O9218	O	0.867499	0.374906	0.644352
	O9219	O	0.992376	0.124927	0.536876
	C9220	C	0.966141	0.213878	0.626990
	C9221	C	0.970648	0.125103	0.630790
	C9222	C	0.966166	0.036161	0.626954
	C9223	C	0.957396	0.035878	0.619340
	C9224	C	0.952934	0.124813	0.615403
	C9225	C	0.957385	0.213828	0.619339
	C9226	C	0.943618	0.124838	0.606849
	C9227	C	0.980140	0.124962	0.638935
	C9228	C	0.916241	0.124714	0.605937
	C9229	C	0.907196	0.124370	0.614318
	C9230	C	0.902872	0.213315	0.618198
	C9231	C	0.894432	0.213106	0.625794
	C9232	C	0.890103	0.124321	0.629616
	C9233	C	0.894439	0.035274	0.625758
	C9234	C	0.902873	0.035390	0.618160
	C9235	C	0.881038	0.124585	0.637866
	C9236	C	0.916573	0.375214	0.573465
	C9237	C	0.907951	0.375219	0.563532
	C9238	C	0.903787	0.464310	0.558918
	C9239	C	0.895760	0.464187	0.549768
	C9240	C	0.891657	0.375046	0.545050
	C9241	C	0.895800	0.285891	0.549698
	C9242	C	0.903831	0.286084	0.558861
	C9243	C	0.883032	0.375011	0.535120
	C9244	C	0.943541	0.374777	0.575407
	C9245	C	0.952640	0.374478	0.567189
	C9246	C	0.956940	0.285253	0.563277
	C9247	C	0.965397	0.285017	0.555673
	C9248	C	0.969729	0.374278	0.551840
	C9249	C	0.965447	0.463398	0.555807
	C9250	C	0.957013	0.463640	0.563419
	C9251	C	0.978796	0.374857	0.543504
	H9252	H	0.968644	0.216018	0.552614
	H9253	H	0.953646	0.216564	0.566200
	H9254	H	0.969496	0.282813	0.629991
	H9255	H	0.954030	0.282901	0.616392
	H9256	H	0.929920	0.125959	0.572203
	H9257	H	0.929909	0.375005	0.608938
	H9258	H	0.867651	0.374729	0.634804
	H9259	H	0.992373	0.124816	0.546435
	H9260	H	0.906982	0.217177	0.562338
	H9261	H	0.892674	0.216776	0.546191
	H9262	H	0.891159	0.282274	0.628741
	H9263	H	0.906125	0.282230	0.615184
	H9264	H	0.892591	0.533128	0.546260
	H9265	H	0.906886	0.533372	0.562517
	H9266	H	0.906114	-0.033535	0.615122
	H9267	H	0.891162	-0.033521	0.628709
	H9268	H	0.954065	-0.033292	0.616296
	H9269	H	0.969541	-0.032829	0.629888
	H9270	H	0.953823	0.532650	0.566484
	H9271	H	0.968753	0.532312	0.552917
	Al9272	Al	0.932256	-0.500572	0.715944
	Al9273	Al	0.932209	-0.249580	0.715848
	Al9274	Al	0.867387	-0.249967	0.653170
	Al9275	Al	0.867394	-0.499902	0.653155
	O9276	O	0.943950	-0.459001	0.725713
	O9277	O	0.931608	-0.375052	0.707046
	O9278	O	0.933209	-0.125204	0.724702
	O9279	O	0.993466	-0.459690	0.711659
	O9280	O	0.922788	-0.459120	0.729043
	O9281	O	0.879000	-0.459070	0.764685
	O9282	O	0.922812	-0.290867	0.729023
	O9283	O	0.921378	-0.208829	0.704419
	O9284	O	0.877409	-0.208677	0.666222
	O9285	O	0.943980	-0.290486	0.725653
	O9286	O	0.941466	-0.208833	0.702117
	O9287	O	0.985399	-0.208911	0.666756
	O9288	O	0.879007	-0.291008	0.764731
	O9289	O	0.921387	-0.041030	0.704462
	O9290	O	0.877422	-0.040604	0.666169
	O9291	O	0.985402	-0.041021	0.666795
	O9292	O	0.941482	-0.040890	0.702137
	O9293	O	0.993506	-0.291289	0.711450
	O9294	O	0.869189	-0.125169	0.769641
	O9295	O	0.995746	-0.375176	0.662278
	C9296	C	0.973567	-0.284814	0.716782
	C9297	C	0.978554	-0.374974	0.715057
	C9298	C	0.973554	-0.464838	0.716840
	C9299	C	0.963857	-0.464919	0.720385
	C9300	C	0.958874	-0.374840	0.722197
	C9301	C	0.963867	-0.284844	0.720323
	C9302	C	0.948214	-0.374755	0.724805
	C9303	C	0.989235	-0.375369	0.712467
	C9304	C	0.919117	-0.374832	0.732005
	C9305	C	0.909709	-0.374844	0.739655
	C9306	C	0.905163	-0.285029	0.743092
	C9307	C	0.896377	-0.284842	0.749920
	C9308	C	0.891864	-0.374607	0.753484
	C9309	C	0.896334	-0.464292	0.749800
	C9310	C	0.905116	-0.464416	0.742976
	C9311	C	0.882611	-0.375098	0.761536
	C9312	C	0.917624	-0.124773	0.701363
	C9313	C	0.908172	-0.124910	0.693201
	C9314	C	0.903669	-0.036016	0.689390
	C9315	C	0.894896	-0.035653	0.681817
	C9316	C	0.890417	-0.124454	0.677910
	C9317	C	0.894909	-0.213345	0.681807
	C9318	C	0.903674	-0.213763	0.689385
	C9319	C	0.881072	-0.124456	0.669451
	C9320	C	0.945059	-0.124812	0.698893
	C9321	C	0.954340	-0.124768	0.690908
	C9322	C	0.958803	-0.214116	0.687187
	C9323	C	0.967615	-0.214189	0.680478
	C9324	C	0.972239	-0.124867	0.677222
	C9325	C	0.967723	-0.035515	0.680761
	C9326	C	0.958911	-0.035350	0.687488
	C9327	C	0.981661	-0.124961	0.669664
	H9328	H	0.970987	-0.283740	0.677751
	H9329	H	0.955364	-0.283738	0.689679
	H9330	H	0.977307	-0.214925	0.715344
	H9331	H	0.960093	-0.214668	0.721638
	H9332	H	0.930937	-0.374960	0.697476
	H9333	H	0.934695	-0.125722	0.734051
	H9334	H	0.868508	-0.125319	0.760004
	H9335	H	0.997144	-0.375241	0.671673
	H9336	H	0.907001	-0.282805	0.692407
	H9337	H	0.891526	-0.282257	0.678835
	H9338	H	0.893020	-0.214872	0.752561
	H9339	H	0.908588	-0.215273	0.740445
	H9340	H	0.891524	0.033141	0.678811
	H9341	H	0.907034	0.032818	0.692420
	H9342	H	0.908464	-0.534109	0.740220
	H9343	H	0.892926	-0.534198	0.752342
	H9344	H	0.960123	-0.534954	0.721761
	H9345	H	0.977319	-0.534813	0.715460
	H9346	H	0.955561	0.034237	0.690175
	H9347	H	0.971191	0.034278	0.678236
	Al9348	Al	0.932245	-0.000616	0.715950
	Al9349	Al	0.932257	0.250417	0.715958
	Al9350	Al	0.867344	0.249925	0.653126
	Al9351	Al	0.867337	0.000246	0.653077
	O9352	O	0.943978	0.040948	0.725823
	O9353	O	0.931635	0.124878	0.707059
	O9354	O	0.933167	0.374782	0.724728
	O9355	O	0.993491	0.040556	0.711548
	O9356	O	0.922836	0.040883	0.729151
	O9357	O	0.879007	0.041323	0.764615
	O9358	O	0.922898	0.209058	0.729179
	O9359	O	0.921367	0.290505	0.704607
	O9360	O	0.877440	0.290771	0.666190
	O9361	O	0.943971	0.209433	0.725754
	O9362	O	0.941467	0.291116	0.702134
	O9363	O	0.985341	0.290603	0.666583
	O9364	O	0.879012	0.209255	0.764729
	O9365	O	0.921366	0.458309	0.704495
	O9366	O	0.877448	0.458656	0.666209
	O9367	O	0.985404	0.459007	0.666776
	O9368	O	0.941484	0.459064	0.702096
	O9369	O	0.993494	0.208812	0.711538
	O9370	O	0.869133	0.375096	0.769596
	O9371	O	0.995704	0.125032	0.662232
	C9372	C	0.973590	0.214876	0.716927
	C9373	C	0.978570	0.124857	0.715098
	C9374	C	0.973548	0.034912	0.716765
	C9375	C	0.963846	0.035132	0.720333
	C9376	C	0.958889	0.125129	0.722276
	C9377	C	0.963884	0.214923	0.720488
	C9378	C	0.948215	0.125145	0.724889
	C9379	C	0.989241	0.124674	0.712434
	C9380	C	0.919150	0.125107	0.732101
	C9381	C	0.909758	0.125384	0.739682
	C9382	C	0.905180	0.215132	0.743058
	C9383	C	0.896367	0.215032	0.749830
	C9384	C	0.891844	0.125307	0.753447
	C9385	C	0.896353	0.035548	0.749843
	C9386	C	0.905165	0.035556	0.743059
	C9387	C	0.882616	0.125378	0.761475
	C9388	C	0.917626	0.374479	0.701438
	C9389	C	0.908165	0.374388	0.693321
	C9390	C	0.903629	0.463424	0.689562
	C9391	C	0.894888	0.463293	0.681929
	C9392	C	0.890439	0.374424	0.677922
	C9393	C	0.894962	0.285360	0.681702
	C9394	C	0.903705	0.285578	0.689331
	C9395	C	0.881127	0.374751	0.669393
	C9396	C	0.945105	0.374957	0.698943
	C9397	C	0.954325	0.374995	0.690855
	C9398	C	0.958791	0.285328	0.687224
	C9399	C	0.967609	0.285297	0.680467
	C9400	C	0.972252	0.374755	0.677207
	C9401	C	0.967731	0.464412	0.680676
	C9402	C	0.958916	0.464575	0.687421
	C9403	C	0.981655	0.374784	0.669610
	H9404	H	0.970978	0.215591	0.677800
	H9405	H	0.955399	0.215520	0.689840
	H9406	H	0.977367	0.284760	0.715617
	H9407	H	0.960183	0.285068	0.721985
	H9408	H	0.930914	0.125131	0.697473
	H9409	H	0.934452	0.374339	0.734220
	H9410	H	0.868651	0.374915	0.760013
	H9411	H	0.997172	0.125216	0.671594
	H9412	H	0.907117	0.216656	0.692187
	H9413	H	0.891660	0.216651	0.678509
	H9414	H	0.892947	0.284995	0.752420
	H9415	H	0.908568	0.285010	0.740353
	H9416	H	0.891526	0.532486	0.678924
	H9417	H	0.906991	0.532404	0.692643
	H9418	H	0.908557	-0.034203	0.740371
	H9419	H	0.892947	-0.034453	0.752425
	H9420	H	0.960093	-0.034767	0.721706
	H9421	H	0.977249	-0.035034	0.715298
	H9422	H	0.955601	0.534709	0.690179
	H9423	H	0.971202	0.534311	0.678221
	Al9424	Al	0.942740	-0.499573	0.783889
	Al9425	Al	0.942733	-0.250967	0.783953
	Al9426	Al	0.869751	-0.250520	0.778526
	Al9427	Al	0.869715	-0.499493	0.778418
	O9428	O	0.953599	-0.459062	0.795328
	O9429	O	0.941763	-0.375062	0.775078
	O9430	O	0.943341	-0.125235	0.792743
	O9431	O	0.997549	-0.459089	0.833671
	O9432	O	0.933465	-0.459409	0.797618
	O9433	O	0.889586	-0.458975	0.833144
	O9434	O	0.933424	-0.291295	0.797615
	O9435	O	0.931008	-0.209639	0.774135
	O9436	O	0.881474	-0.208853	0.788440
	O9437	O	0.953617	-0.290964	0.795391
	O9438	O	0.952196	-0.209527	0.770820
	O9439	O	0.995932	-0.209658	0.735042
	O9440	O	0.889641	-0.290858	0.833163
	O9441	O	0.931011	-0.041404	0.774030
	O9442	O	0.881487	-0.040593	0.788239
	O9443	O	0.995949	-0.041685	0.735089
	O9444	O	0.952118	-0.041283	0.770649
	O9445	O	0.997477	-0.290720	0.833737
	O9446	O	0.879281	-0.125239	0.837715
	O9447	O	1.005880	-0.374931	0.730216
	C9448	C	0.980036	-0.285807	0.818079
	C9449	C	0.984523	-0.375012	0.821989
	C9450	C	0.980078	-0.464163	0.818027
	C9451	C	0.971332	-0.464157	0.810397
	C9452	C	0.966816	-0.375200	0.806572
	C9453	C	0.971287	-0.285963	0.810478
	C9454	C	0.957358	-0.375130	0.798416
	C9455	C	0.993858	-0.375149	0.830466
	C9456	C	0.929885	-0.375556	0.800853
	C9457	C	0.920625	-0.375585	0.808944
	C9458	C	0.916134	-0.285982	0.812524
	C9459	C	0.907324	-0.286185	0.819279
	C9460	C	0.902773	-0.375743	0.822681
	C9461	C	0.907309	-0.465372	0.819263
	C9462	C	0.916116	-0.465324	0.812490
	C9463	C	0.893315	-0.375105	0.830238
	C9464	C	0.926765	-0.125404	0.774984
	C9465	C	0.916103	-0.125341	0.777588
	C9466	C	0.911111	-0.035366	0.779290
	C9467	C	0.901411	-0.034982	0.782863
	C9468	C	0.896410	-0.124614	0.784784
	C9469	C	0.901373	-0.214497	0.783002
	C9470	C	0.911077	-0.214977	0.779437
	C9471	C	0.885750	-0.124742	0.787456
	C9472	C	0.955886	-0.125364	0.767836
	C9473	C	0.965290	-0.125401	0.760251
	C9474	C	0.969932	-0.214955	0.757046
	C9475	C	0.978704	-0.214872	0.750184
	C9476	C	0.983143	-0.125305	0.746397
	C9477	C	0.978554	-0.035677	0.749755
	C9478	C	0.969764	-0.035781	0.756587
	C9479	C	0.992320	-0.125732	0.738222
	H9480	H	0.982098	-0.284953	0.747667
	H9481	H	0.966580	-0.284458	0.759854
	H9482	H	0.983402	-0.217064	0.821086
	H9483	H	0.967893	-0.217023	0.807488
	H9484	H	0.940203	-0.375098	0.765717
	H9485	H	0.944071	-0.125057	0.802312
	H9486	H	0.877783	-0.125229	0.828301
	H9487	H	1.006405	-0.374971	0.739857
	H9488	H	0.914852	-0.284927	0.778086
	H9489	H	0.897660	-0.284428	0.784456
	H9490	H	0.903910	-0.216552	0.821970
	H9491	H	0.919497	-0.215683	0.809967
	H9492	H	0.897662	0.035023	0.784191
	H9493	H	0.914815	0.034456	0.777828
	H9494	H	0.919516	-0.535173	0.809882
	H9495	H	0.903928	-0.535326	0.821883
	H9496	H	0.967995	-0.533021	0.807307
	H9497	H	0.983509	-0.532928	0.821003
	H9498	H	0.966302	0.033830	0.758992
	H9499	H	0.981864	0.033896	0.746915
	Al9500	Al	0.942726	0.000244	0.783815
	Al9501	Al	0.942710	0.249140	0.783871
	Al9502	Al	0.869721	0.249571	0.778451
	Al9503	Al	0.869748	0.000530	0.778473
	O9504	O	0.953611	0.040839	0.795186
	O9505	O	0.941712	0.124941	0.775064
	O9506	O	0.943368	0.374983	0.792719
	O9507	O	0.997490	0.040515	0.833757
	O9508	O	0.933448	0.040500	0.797576
	O9509	O	0.889626	0.040485	0.833214
	O9510	O	0.933454	0.208578	0.797692
	O9511	O	0.930970	0.291071	0.774143
	O9512	O	0.881429	0.291103	0.788380
	O9513	O	0.953583	0.208848	0.795288
	O9514	O	0.952093	0.291108	0.770709
	O9515	O	0.995952	0.290953	0.735187
	O9516	O	0.889687	0.208680	0.833219
	O9517	O	0.930957	0.459307	0.774117
	O9518	O	0.881439	0.459309	0.788202
	O9519	O	0.996005	0.459224	0.735261
	O9520	O	0.952110	0.458929	0.770665
	O9521	O	0.997454	0.208737	0.833798
	O9522	O	0.879229	0.374853	0.837633
	O9523	O	1.005828	0.124833	0.730227
	C9524	C	0.980005	0.213445	0.818100
	C9525	C	0.984480	0.124414	0.822018
	C9526	C	0.980028	0.035529	0.818066
	C9527	C	0.971284	0.035409	0.810420
	C9528	C	0.966794	0.124447	0.806540
	C9529	C	0.971269	0.213365	0.810452
	C9530	C	0.957338	0.124686	0.798357
	C9531	C	0.993780	0.124562	0.830554
	C9532	C	0.929842	0.124449	0.800794
	C9533	C	0.920646	0.124411	0.808923
	C9534	C	0.916118	0.214162	0.812459
	C9535	C	0.907333	0.213846	0.819243
	C9536	C	0.902776	0.124198	0.822679
	C9537	C	0.907350	0.034558	0.819271
	C9538	C	0.916144	0.034741	0.812498
	C9539	C	0.893364	0.124374	0.830269
	C9540	C	0.926715	0.375147	0.774955
	C9541	C	0.916027	0.374960	0.777529
	C9542	C	0.911048	0.464738	0.779363
	C9543	C	0.901346	0.464779	0.782913
	C9544	C	0.896349	0.374866	0.784724
	C9545	C	0.901331	0.284949	0.782888
	C9546	C	0.911042	0.284975	0.779328
	C9547	C	0.885681	0.375131	0.787356
	C9548	C	0.955818	0.374955	0.767736
	C9549	C	0.965233	0.375003	0.760130
	C9550	C	0.969808	0.285435	0.756794
	C9551	C	0.978630	0.285572	0.750030
	C9552	C	0.983106	0.375027	0.746387
	C9553	C	0.978559	0.464659	0.749853
	C9554	C	0.969743	0.464498	0.756622
	C9555	C	0.992384	0.374965	0.738415
	H9556	H	0.982073	0.215798	0.747562
	H9557	H	0.966458	0.215467	0.759506
	H9558	H	0.983356	0.282347	0.821174
	H9559	H	0.967880	0.282543	0.807494
	H9560	H	0.940066	0.124841	0.765737
	H9561	H	0.944179	0.374959	0.802280
	H9562	H	0.877772	0.374739	0.828265
	H9563	H	1.006433	0.125021	0.739802
	H9564	H	0.914749	0.214915	0.777895
	H9565	H	0.897589	0.214926	0.784319
	H9566	H	0.903974	0.283513	0.821873
	H9567	H	0.919501	0.283908	0.809799
	H9568	H	0.897657	0.535108	0.784383
	H9569	H	0.914836	0.534578	0.778005
	H9570	H	0.919540	-0.035110	0.809864
	H9571	H	0.903957	-0.035068	0.821996
	H9572	H	0.967888	-0.033613	0.807436
	H9573	H	0.983371	-0.033402	0.821060
	H9574	H	0.966314	0.534013	0.759200
	H9575	H	0.981902	0.534756	0.747279
	Al9576	Al	0.945080	-0.500016	0.909380
	Al9577	Al	0.945083	-0.250372	0.909319
	Al9578	Al	0.880266	-0.249807	0.846447
	Al9579	Al	0.880235	-0.500584	0.846383
	O9580	O	0.954948	-0.459100	0.922706
	O9581	O	0.945141	-0.375278	0.900600
	O9582	O	0.945057	-0.125214	0.918035
	O9583	O	0.995272	-0.459020	0.968714
	O9584	O	0.934954	-0.459082	0.921446
	O9585	O	0.892655	-0.458917	0.959691
	O9586	O	0.934996	-0.291081	0.921373
	O9587	O	0.935016	-0.209728	0.896296
	O9588	O	0.891113	-0.209035	0.857866
	O9589	O	0.954898	-0.291072	0.922733
	O9590	O	0.955153	-0.209627	0.897123
	O9591	O	0.997503	-0.208894	0.858806
	O9592	O	0.892689	-0.290795	0.959767
	O9593	O	0.935007	-0.041636	0.896211
	O9594	O	0.891175	-0.041080	0.857847
	O9595	O	0.997501	-0.040835	0.858809
	O9596	O	0.955133	-0.041581	0.897101
	O9597	O	0.995282	-0.290860	0.968640
	O9598	O	0.882551	-0.125336	0.963068
	O9599	O	1.007532	-0.375183	0.855517
	C9600	C	0.979119	-0.286254	0.950271
	C9601	C	0.983292	-0.375214	0.954827
	C9602	C	0.979215	-0.464011	0.950066
	C9603	C	0.971193	-0.464057	0.940907
	C9604	C	0.967052	-0.375104	0.936309
	C9605	C	0.971098	-0.286326	0.941101
	C9606	C	0.958376	-0.374999	0.926449
	C9607	C	0.991894	-0.375013	0.964829
	C9608	C	0.931407	-0.374964	0.924588
	C9609	C	0.922332	-0.374566	0.932834
	C9610	C	0.918012	-0.285702	0.936718
	C9611	C	0.909590	-0.285938	0.944352
	C9612	C	0.905259	-0.374943	0.948207
	C9613	C	0.909560	-0.463794	0.944279
	C9614	C	0.917982	-0.463605	0.936666
	C9615	C	0.896238	-0.374841	0.956528
	C9616	C	0.931368	-0.125876	0.893011
	C9617	C	0.922056	-0.125921	0.884519
	C9618	C	0.917602	-0.036763	0.880554
	C9619	C	0.908889	-0.036522	0.872884
	C9620	C	0.904349	-0.125549	0.869068
	C9621	C	0.908846	-0.214761	0.872912
	C9622	C	0.917565	-0.214969	0.880575
	C9623	C	0.894886	-0.125248	0.860973
	C9624	C	0.958716	-0.125579	0.893940
	C9625	C	0.967772	-0.125153	0.885656
	C9626	C	0.972088	-0.214215	0.881709
	C9627	C	0.980528	-0.214454	0.874098
	C9628	C	0.984865	-0.125372	0.870250
	C9629	C	0.980506	-0.036386	0.874112
	C9630	C	0.972067	-0.036193	0.881716
	C9631	C	0.993916	-0.124869	0.861971
	H9632	H	0.983771	-0.283432	0.871052
	H9633	H	0.968790	-0.283057	0.884614
	H9634	H	0.982160	-0.217285	0.953924
	H9635	H	0.967972	-0.217361	0.937602
	H9636	H	0.945139	-0.375402	0.891094
	H9637	H	0.944958	-0.124826	0.927599
	H9638	H	0.882490	-0.125200	0.953522
	H9639	H	1.007540	-0.375235	0.865085
	H9640	H	0.920957	-0.284108	0.883587
	H9641	H	0.905428	-0.283695	0.869917
	H9642	H	0.906358	-0.217053	0.947382
	H9643	H	0.921274	-0.216682	0.933772
	H9644	H	0.905488	0.032582	0.869890
	H9645	H	0.921000	0.032238	0.883517
	H9646	H	0.921222	-0.532515	0.933639
	H9647	H	0.906311	-0.532644	0.947276
	H9648	H	0.968132	-0.533228	0.937278
	H9649	H	0.982337	-0.533090	0.953609
	H9650	H	0.968779	0.032754	0.884659
	H9651	H	0.983723	0.032453	0.871088
	Al9652	Al	0.945093	-0.000442	0.909285
	Al9653	Al	0.945046	0.249749	0.909354
	Al9654	Al	0.880248	0.250293	0.846321
	Al9655	Al	0.880240	-0.000804	0.846451
	O9656	O	0.954923	0.040846	0.922655
	O9657	O	0.945092	0.124661	0.900576
	O9658	O	0.944980	0.374932	0.918128
	O9659	O	0.995286	0.040876	0.968637
	O9660	O	0.934982	0.040114	0.921373
	O9661	O	0.892635	0.040348	0.959772
	O9662	O	0.934985	0.208291	0.921473
	O9663	O	0.934968	0.290484	0.896348
	O9664	O	0.891117	0.291090	0.857763
	O9665	O	0.954874	0.208894	0.922790
	O9666	O	0.955157	0.290418	0.897250
	O9667	O	0.997466	0.290949	0.858952
	O9668	O	0.892658	0.208416	0.959671
	O9669	O	0.935006	0.458547	0.896297
	O9670	O	0.891177	0.459044	0.857693
	O9671	O	0.997481	0.458983	0.858970
	O9672	O	0.955137	0.458533	0.897287
	O9673	O	0.995377	0.208958	0.968526
	O9674	O	0.882674	0.374805	0.963120
	O9675	O	1.007500	0.124833	0.855567
	C9676	C	0.979144	0.213708	0.950189
	C9677	C	0.983298	0.124833	0.954816
	C9678	C	0.979215	0.035742	0.950076
	C9679	C	0.971182	0.035834	0.940930
	C9680	C	0.967002	0.124771	0.936337
	C9681	C	0.971099	0.213713	0.941049
	C9682	C	0.958309	0.124930	0.926498
	C9683	C	0.991917	0.124925	0.964766
	C9684	C	0.931393	0.124073	0.924533
	C9685	C	0.922306	0.124083	0.932781
	C9686	C	0.918017	0.213083	0.936673
	C9687	C	0.909587	0.213147	0.944311
	C9688	C	0.905239	0.124154	0.948162
	C9689	C	0.909554	0.035086	0.944270
	C9690	C	0.917981	0.035121	0.936655
	C9691	C	0.896196	0.124430	0.956494
	C9692	C	0.931325	0.374480	0.893028
	C9693	C	0.922000	0.374422	0.884535
	C9694	C	0.917521	0.463520	0.880640
	C9695	C	0.908813	0.463775	0.872953
	C9696	C	0.904339	0.374757	0.869015
	C9697	C	0.908824	0.285738	0.872904
	C9698	C	0.917540	0.285620	0.880577
	C9699	C	0.894894	0.374889	0.860820
	C9700	C	0.958698	0.374554	0.894049
	C9701	C	0.967698	0.374589	0.885617
	C9702	C	0.972010	0.285685	0.881683
	C9703	C	0.980454	0.285781	0.874057
	C9704	C	0.984764	0.374740	0.870232
	C9705	C	0.980444	0.463537	0.874173
	C9706	C	0.972012	0.463410	0.881785
	C9707	C	0.993873	0.374828	0.862078
	H9708	H	0.983743	0.217034	0.871105
	H9709	H	0.968768	0.216986	0.884662
	H9710	H	0.982230	0.282823	0.953804
	H9711	H	0.967981	0.282737	0.937522
	H9712	H	0.944969	0.124728	0.891060
	H9713	H	0.944911	0.375506	0.927673
	H9714	H	0.882677	0.375055	0.953553
	H9715	H	1.007343	0.124705	0.865140
	H9716	H	0.920913	0.216335	0.883553
	H9717	H	0.905419	0.216659	0.869874
	H9718	H	0.906325	0.282098	0.947339
	H9719	H	0.921300	0.282053	0.933700
	H9720	H	0.905453	0.532864	0.869973
	H9721	H	0.920920	0.532055	0.883610
	H9722	H	0.921253	-0.033715	0.933647
	H9723	H	0.906273	-0.033733	0.947217
	H9724	H	0.968092	-0.033171	0.937306
	H9725	H	0.982329	-0.033324	0.953622
	H9726	H	0.968780	0.532409	0.884818
	H9727	H	0.983753	0.532470	0.871271
