data_Molecule from HDF5

_cell_length_a		186.577207
_cell_length_b		74.039514
_cell_length_c		13.976356
_cell_angle_alpha	89.994216
_cell_angle_beta	90.007033
_cell_angle_gamma	83.988280
_symmetry_space_group_name_H-M	'P 1'
_symmetry_Int_Tables_number		1

loop_
	_symmetry_equiv_pos_as_xyz
	x,y,z

loop_
	_atom_site_label
	_atom_site_type_symbol
	_atom_site_fract_x
	_atom_site_fract_y
	_atom_site_fract_z
	H0	H	0.010865	0.086143	0.351162
	H1	H	0.066592	-0.033350	0.347373
	H2	H	0.038471	0.012934	0.151601
	H3	H	0.103444	-0.019183	0.151916
	H4	H	0.038507	0.013246	0.349925
	H5	H	0.103429	-0.018968	0.347188
	H6	H	0.010798	0.085373	0.150721
	H7	H	0.066628	-0.033547	0.152580
	H8	H	0.036812	-0.036439	0.098154
	H9	H	0.099209	0.026651	0.098704
	H10	H	0.000599	-0.055432	0.400879
	H11	H	0.063178	0.006917	0.401675
	H12	H	0.000514	-0.055211	0.096670
	H13	H	0.063167	0.006716	0.097934
	H14	H	0.036551	-0.035059	0.401528
	H15	H	0.099184	0.026976	0.400855
	H16	H	0.020333	0.063272	0.538253
	H17	H	0.078643	-0.028299	0.348961
	H18	H	0.029616	0.037177	-0.068570
	H19	H	0.091145	-0.021975	-0.150349
	H20	H	0.029999	0.038007	0.537711
	H21	H	0.091115	-0.021674	0.349026
	H22	H	0.019982	0.062300	-0.068727
	H23	H	0.078684	-0.028404	-0.150571
	H24	H	0.024520	-0.039377	0.100791
	H25	H	0.087153	0.022369	0.102358
	H26	H	0.011995	-0.045986	0.396963
	H27	H	0.074471	0.016756	0.397164
	H28	H	0.011908	-0.044927	0.100685
	H29	H	0.074545	0.016459	0.102183
	H30	H	0.024622	-0.040512	0.397353
	H31	H	0.087118	0.022490	0.397237
	Co32	Co	0.113457	0.043252	0.124260
	Co33	Co	0.050952	-0.019255	0.125148
	Co34	Co	-0.011569	-0.081347	0.374348
	Co35	Co	0.050882	-0.018896	0.375345
	C36	C	0.009894	0.088342	0.424430
	C37	C	0.065244	-0.032836	0.422151
	C38	C	0.039409	0.010507	0.077807
	C39	C	0.104711	-0.020209	0.077443
	C40	C	0.039404	0.010871	0.423389
	C41	C	0.104700	-0.019946	0.421617
	C42	C	0.009845	0.087867	0.077676
	C43	C	0.065328	-0.033002	0.077622
	C44	C	0.037978	-0.035440	0.172369
	C45	C	0.100464	0.027209	0.172549
	C46	C	-0.000402	-0.057071	0.326607
	C47	C	0.062127	0.005157	0.327529
	C48	C	-0.000462	-0.056942	0.171466
	C49	C	0.062119	0.005102	0.172336
	C50	C	0.037840	-0.034782	0.327074
	C51	C	0.100433	0.027321	0.326996
	C52	C	0.013143	0.079046	0.501257
	C53	C	0.069967	-0.032631	-0.000038
	C54	C	0.035961	0.019702	0.500693
	C55	C	0.100006	-0.019125	-0.000054
	C56	C	0.033421	-0.037211	0.249540
	C57	C	0.095943	0.025150	0.249769
	C58	C	0.003564	-0.051886	0.248959
	C59	C	0.066133	0.010270	0.249884
	C60	C	0.018896	0.063943	0.501303
	C61	C	0.077553	-0.029183	0.000003
	C62	C	0.030138	0.034647	0.500834
	C63	C	0.092267	-0.021186	-0.000031
	C64	C	0.025743	-0.039817	0.249170
	C65	C	0.088275	0.022445	0.249813
	C66	C	0.010878	-0.046272	0.248848
	C67	C	0.073449	0.015880	0.249817
	C68	C	0.022140	0.057148	0.521926
	C69	C	0.081319	-0.026961	0.415811
	C70	C	0.027421	0.042338	-0.037774
	C71	C	0.088479	-0.023276	-0.083554
	C72	C	0.027610	0.042928	0.521720
	C73	C	0.088454	-0.023176	0.415665
	C74	C	0.021925	0.056533	-0.037902
	C75	C	0.081339	-0.027031	-0.083577
	C76	C	0.021851	-0.040869	0.166513
	C77	C	0.084436	0.021050	0.167626
	C78	C	0.014698	-0.044520	0.331566
	C79	C	0.077214	0.017934	0.332160
	C80	C	0.014652	-0.044027	0.166205
	C81	C	0.077240	0.017832	0.167632
	C82	C	0.021897	-0.041396	0.331723
	C83	C	0.084414	0.021190	0.332076
	N84	N	0.004964	0.101703	0.453377
	N85	N	0.058296	-0.032090	0.450965
	N86	N	0.044469	-0.002427	0.048152
	N87	N	0.111645	-0.022664	0.048590
	N88	N	0.044476	-0.002073	0.452543
	N89	N	0.111649	-0.022359	0.450579
	N90	N	0.004912	0.101180	0.048936
	N91	N	0.058365	-0.032204	0.049282
	N92	N	0.044594	-0.031984	0.201572
	N93	N	0.107091	0.030509	0.201294
	N94	N	-0.006156	-0.065165	0.297392
	N95	N	0.056375	-0.002950	0.298134
	N96	N	-0.006214	-0.065026	0.200829
	N97	N	0.056379	-0.002987	0.201693
	N98	N	0.044487	-0.031531	0.298743
	N99	N	0.107077	0.030584	0.297967
	H100	H	0.010665	0.085298	0.851438
	H101	H	0.066605	-0.032997	0.847538
	H102	H	0.038561	0.013249	0.651245
	H103	H	0.103383	-0.019386	0.651557
	H104	H	0.038573	0.013442	0.849695
	H105	H	0.103411	-0.019618	0.847928
	H106	H	0.010668	0.085583	0.651159
	H107	H	0.066625	-0.033112	0.652235
	H108	H	0.036811	-0.035920	0.598313
	H109	H	0.099244	0.026153	0.598737
	H110	H	0.000561	-0.055369	0.901687
	H111	H	0.063128	0.006944	0.902517
	H112	H	0.000633	-0.055653	0.598034
	H113	H	0.063055	0.007091	0.598428
	H114	H	0.036649	-0.035045	0.900691
	H115	H	0.099309	0.026197	0.901608
	H116	H	0.019397	0.060728	1.070508
	H117	H	0.078648	-0.028127	1.150564
	H118	H	0.028669	0.035411	0.464021
	H119	H	0.091158	-0.021460	0.649332
	H120	H	0.029064	0.035666	1.071249
	H121	H	0.091117	-0.021671	1.150344
	H122	H	0.019044	0.060572	0.464543
	H123	H	0.078668	-0.028188	0.649913
	H124	H	0.024536	-0.039248	0.600926
	H125	H	0.087187	0.021764	0.602059
	H126	H	0.012073	-0.046034	0.898519
	H127	H	0.074446	0.017012	0.898074
	H128	H	0.011958	-0.045146	0.601328
	H129	H	0.074567	0.016025	0.602197
	H130	H	0.024688	-0.040364	0.898024
	H131	H	0.087070	0.022631	0.898258
	Co132	Co	0.113405	0.043161	0.624465
	Co133	Co	0.050942	-0.018937	0.625257
	Co134	Co	-0.011565	-0.081273	0.874692
	Co135	Co	0.050948	-0.018953	0.875814
	C136	C	0.009787	0.087851	0.924479
	C137	C	0.065318	-0.032717	0.922168
	C138	C	0.039451	0.010891	0.577498
	C139	C	0.104687	-0.020188	0.576875
	C140	C	0.039456	0.010804	0.923474
	C141	C	0.104711	-0.020290	0.922440
	C142	C	0.009787	0.088023	0.577854
	C143	C	0.065273	-0.032697	0.577717
	C144	C	0.037981	-0.035120	0.672562
	C145	C	0.100449	0.027004	0.672567
	C146	C	-0.000386	-0.057144	0.827119
	C147	C	0.062132	0.005234	0.827924
	C148	C	-0.000376	-0.057191	0.672209
	C149	C	0.062095	0.005301	0.672773
	C150	C	0.037883	-0.034713	0.826846
	C151	C	0.100460	0.027080	0.827205
	C152	C	0.013168	0.078706	1.001009
	C153	C	0.069944	-0.032635	0.499744
	C154	C	0.035940	0.019493	1.000979
	C155	C	0.099996	-0.019019	0.499151
	C156	C	0.033425	-0.036957	0.749464
	C157	C	0.095955	0.024990	0.750111
	C158	C	0.003635	-0.052078	0.749817
	C159	C	0.066121	0.010327	0.750297
	C160	C	0.018888	0.063644	1.001016
	C161	C	0.077577	-0.029307	0.499468
	C162	C	0.030155	0.034422	1.001069
	C163	C	0.092285	-0.021256	0.499117
	C164	C	0.025770	-0.039767	0.749518
	C165	C	0.088288	0.022297	0.750342
	C166	C	0.010953	-0.046437	0.749949
	C167	C	0.073447	0.015806	0.750033
	C168	C	0.021613	0.055683	1.040110
	C169	C	0.081323	-0.026849	1.083655
	C170	C	0.026888	0.041396	0.480330
	C171	C	0.088477	-0.023079	0.582864
	C172	C	0.027090	0.041447	1.040284
	C173	C	0.088451	-0.023010	1.083569
	C174	C	0.021429	0.055616	0.480599
	C175	C	0.081342	-0.026966	0.582994
	C176	C	0.021881	-0.040818	0.666926
	C177	C	0.084462	0.020640	0.667755
	C178	C	0.014769	-0.044665	0.832715
	C179	C	0.077196	0.018027	0.832523
	C180	C	0.014688	-0.044047	0.667064
	C181	C	0.077265	0.017500	0.667679
	C182	C	0.021962	-0.041396	0.832354
	C183	C	0.084395	0.021211	0.832614
	N184	N	0.004888	0.101203	0.953482
	N185	N	0.058360	-0.032047	0.950867
	N186	N	0.044500	-0.002099	0.547961
	N187	N	0.111640	-0.022461	0.548229
	N188	N	0.044499	-0.002217	0.952539
	N189	N	0.111654	-0.022702	0.951143
	N190	N	0.004898	0.101521	0.548576
	N191	N	0.058314	-0.032068	0.549065
	N192	N	0.044583	-0.031660	0.701695
	N193	N	0.107084	0.030338	0.701030
	N194	N	-0.006124	-0.065262	0.797746
	N195	N	0.056352	-0.002775	0.798772
	N196	N	-0.006117	-0.065305	0.701148
	N197	N	0.056330	-0.002726	0.702229
	N198	N	0.044524	-0.031502	0.798613
	N199	N	0.107077	0.030438	0.798373
	H200	H	0.022363	0.287438	0.350141
	H201	H	0.073285	0.147901	0.350704
	H202	H	0.050172	0.215345	0.148523
	H203	H	0.100917	0.075213	0.150740
	H204	H	0.050145	0.215483	0.350923
	H205	H	0.101070	0.075591	0.348204
	H206	H	0.022361	0.287408	0.150318
	H207	H	0.073138	0.147488	0.148891
	H208	H	0.047938	0.162880	0.102971
	H209	H	0.110235	0.226084	0.102591
	H210	H	0.013074	0.137932	0.398857
	H211	H	0.075577	0.199785	0.397118
	H212	H	0.013092	0.137621	0.101709
	H213	H	0.075620	0.199703	0.102279
	H214	H	0.047788	0.163722	0.396586
	H215	H	0.110242	0.226215	0.397645
	H216	H	0.031581	0.264245	0.538037
	H217	H	0.082070	0.123483	0.554474
	H218	H	0.041448	0.239570	-0.100218
	H219	H	0.092274	0.099733	-0.028120
	H220	H	0.041286	0.239192	0.537921
	H221	H	0.091699	0.098333	0.554706
	H222	H	0.031814	0.264750	-0.100766
	H223	H	0.082666	0.124842	-0.028353
	H224	H	0.036812	0.153450	0.292992
	H225	H	0.099559	0.213962	0.217750
	H226	H	0.024099	0.147772	0.206737
	H227	H	0.086281	0.211914	0.282000
	H228	H	0.024469	0.144844	0.293333
	H229	H	0.087247	0.205122	0.218186
	H230	H	0.036448	0.156245	0.206150
	H231	H	0.098560	0.220705	0.281765
	Co232	Co	0.124192	0.244191	0.124454
	Co233	Co	0.061681	0.181515	0.124401
	Co234	Co	-0.000819	0.119421	0.376236
	Co235	Co	0.061712	0.181554	0.375411
	C236	C	0.021446	0.289885	0.423609
	C237	C	0.072355	0.150349	0.423473
	C238	C	0.051083	0.212883	0.075828
	C239	C	0.101861	0.072872	0.077005
	C240	C	0.051075	0.212883	0.424129
	C241	C	0.101955	0.073082	0.422088
	C242	C	0.021486	0.290026	0.076889
	C243	C	0.072296	0.150184	0.076166
	C244	C	0.049043	0.164111	0.174497
	C245	C	0.111423	0.227093	0.174584
	C246	C	0.011910	0.136727	0.326117
	C247	C	0.074417	0.198769	0.325178
	C248	C	0.011913	0.136632	0.174461
	C249	C	0.074434	0.198738	0.174091
	C250	C	0.048975	0.164488	0.324917
	C251	C	0.111424	0.227175	0.325575
	C252	C	0.024907	0.281108	0.500871
	C253	C	0.075719	0.141265	-0.000367
	C254	C	0.047779	0.221952	0.500631
	C255	C	0.098431	0.081749	-0.000045
	C256	C	0.044826	0.160581	0.249629
	C257	C	0.107238	0.223419	0.250104
	C258	C	0.016094	0.140408	0.250325
	C259	C	0.078612	0.202483	0.249730
	C260	C	0.030743	0.266277	0.500736
	C261	C	0.081424	0.126088	-0.000528
	C262	C	0.042063	0.237100	0.500587
	C263	C	0.092627	0.096675	-0.000116
	C264	C	0.037564	0.155307	0.249476
	C265	C	0.099995	0.217994	0.249700
	C266	C	0.023352	0.145798	0.250123
	C267	C	0.085852	0.207851	0.250144
	C268	C	0.033683	0.258811	0.521403
	C269	C	0.084198	0.118281	0.530254
	C270	C	0.039288	0.244937	-0.056753
	C271	C	0.089960	0.104770	-0.015814
	C272	C	0.039179	0.244634	0.521663
	C273	C	0.089663	0.104002	0.530310
	C274	C	0.033812	0.259161	-0.056826
	C275	C	0.084528	0.119048	-0.015964
	C276	C	0.034041	0.152134	0.274137
	C277	C	0.096646	0.213548	0.231789
	C278	C	0.026881	0.148993	0.225436
	C279	C	0.089180	0.212306	0.268051
	C280	C	0.027081	0.147433	0.274397
	C281	C	0.089724	0.208561	0.232135
	C282	C	0.033837	0.153693	0.225091
	C283	C	0.096108	0.217242	0.267856
	N284	N	0.016363	0.302864	0.452620
	N285	N	0.067481	0.163755	0.452631
	N286	N	0.056001	0.199512	0.047310
	N287	N	0.106948	0.059929	0.047557
	N288	N	0.055988	0.199460	0.452655
	N289	N	0.107034	0.060126	0.451511
	N290	N	0.016401	0.303005	0.047819
	N291	N	0.067430	0.163634	0.047507
	N292	N	0.055249	0.169770	0.203067
	N293	N	0.117638	0.232688	0.202953
	N294	N	0.005711	0.131051	0.297466
	N295	N	0.068239	0.193127	0.296493
	N296	N	0.005711	0.131024	0.203079
	N297	N	0.068244	0.193134	0.202643
	N298	N	0.055201	0.169996	0.296451
	N299	N	0.117643	0.232719	0.296847
	H300	H	0.022461	0.288033	0.849191
	H301	H	0.073378	0.148210	0.850737
	H302	H	0.050303	0.215448	0.650178
	H303	H	0.100885	0.075089	0.650466
	H304	H	0.050271	0.215373	0.850629
	H305	H	0.100991	0.075379	0.848889
	H306	H	0.022277	0.287550	0.651249
	H307	H	0.073220	0.147542	0.648748
	H308	H	0.047782	0.163486	0.603618
	H309	H	0.110236	0.226189	0.601852
	H310	H	0.012939	0.138029	0.899715
	H311	H	0.075591	0.200317	0.897239
	H312	H	0.013053	0.138109	0.604372
	H313	H	0.075710	0.199780	0.602241
	H314	H	0.047820	0.163429	0.897702
	H315	H	0.110402	0.225495	0.898004
	H316	H	0.031403	0.263959	1.099068
	H317	H	0.081766	0.122991	1.026981
	H318	H	0.041211	0.239159	0.463206
	H319	H	0.092018	0.099244	0.443252
	H320	H	0.041095	0.238931	1.099185
	H321	H	0.091392	0.097798	1.028265
	H322	H	0.031540	0.264241	0.463380
	H323	H	0.082354	0.124331	0.443589
	H324	H	0.036454	0.155892	0.743479
	H325	H	0.099262	0.216461	0.669158
	H326	H	0.024395	0.145673	0.760225
	H327	H	0.086758	0.208972	0.830884
	H328	H	0.024097	0.147519	0.744892
	H329	H	0.086904	0.208058	0.669010
	H330	H	0.036775	0.154016	0.759879
	H331	H	0.099130	0.217308	0.831007
	Co332	Co	0.124211	0.244320	0.623959
	Co333	Co	0.061750	0.181580	0.624664
	Co334	Co	-0.000808	0.119110	0.876498
	Co335	Co	0.061754	0.181704	0.875381
	C336	C	0.021532	0.290314	0.922433
	C337	C	0.072413	0.150532	0.923467
	C338	C	0.051148	0.212868	0.576915
	C339	C	0.101860	0.072823	0.576665
	C340	C	0.051136	0.212893	0.923352
	C341	C	0.101893	0.072963	0.922568
	C342	C	0.021416	0.289941	0.577617
	C343	C	0.072332	0.150221	0.576036
	C344	C	0.048992	0.164469	0.675134
	C345	C	0.111460	0.227019	0.673948
	C346	C	0.011860	0.136850	0.827759
	C347	C	0.074413	0.199184	0.825310
	C348	C	0.011903	0.136896	0.676210
	C349	C	0.074483	0.198872	0.673808
	C350	C	0.049034	0.164406	0.826277
	C351	C	0.111545	0.226662	0.825743
	C352	C	0.024982	0.281374	0.999525
	C353	C	0.075699	0.141173	0.499463
	C354	C	0.047774	0.222024	0.999435
	C355	C	0.098423	0.081756	0.499265
	C356	C	0.044829	0.160748	0.751083
	C357	C	0.107341	0.223033	0.749996
	C358	C	0.016073	0.140621	0.752207
	C359	C	0.078632	0.202772	0.749638
	C360	C	0.030807	0.266490	0.999346
	C361	C	0.081422	0.126080	0.499031
	C362	C	0.042078	0.237203	0.999330
	C363	C	0.092635	0.096667	0.499225
	C364	C	0.037542	0.155587	0.751602
	C365	C	0.100100	0.217596	0.750345
	C366	C	0.023304	0.146072	0.752570
	C367	C	0.085910	0.207956	0.749738
	C368	C	0.033612	0.258742	1.055098
	C369	C	0.084055	0.117983	1.015167
	C370	C	0.039127	0.244602	0.479505
	C371	C	0.089833	0.104441	0.468157
	C372	C	0.039091	0.244514	1.055146
	C373	C	0.089487	0.103700	1.015637
	C374	C	0.033651	0.258809	0.479778
	C375	C	0.084380	0.118751	0.467987
	C376	C	0.033824	0.153645	0.747519
	C377	C	0.096520	0.214862	0.704589
	C378	C	0.027022	0.147995	0.756743
	C379	C	0.089490	0.210622	0.795435
	C380	C	0.026848	0.149012	0.747941
	C381	C	0.089564	0.210135	0.704306
	C382	C	0.033988	0.152667	0.756385
	C383	C	0.096452	0.215311	0.795588
	N384	N	0.016443	0.303174	0.952027
	N385	N	0.067492	0.163833	0.952658
	N386	N	0.056022	0.199439	0.547639
	N387	N	0.106978	0.059994	0.547261
	N388	N	0.056032	0.199516	0.952781
	N389	N	0.106985	0.059987	0.951732
	N390	N	0.016345	0.302885	0.548039
	N391	N	0.067459	0.163664	0.547459
	N392	N	0.055230	0.169972	0.703241
	N393	N	0.117655	0.232703	0.702448
	N394	N	0.005690	0.131059	0.798678
	N395	N	0.068232	0.193476	0.796632
	N396	N	0.005732	0.131038	0.704424
	N397	N	0.068271	0.193313	0.702542
	N398	N	0.055251	0.169959	0.797256
	N399	N	0.117727	0.232417	0.796924
	H400	H	0.019961	0.382901	0.347195
	H401	H	0.085006	0.350902	0.349056
	H402	H	0.056791	0.396271	0.153399
	H403	H	0.112493	0.277598	0.148580
	H404	H	0.056740	0.396738	0.348330
	H405	H	0.112733	0.278146	0.350237
	H406	H	0.019920	0.382580	0.151362
	H407	H	0.084789	0.349989	0.150612
	H408	H	0.060339	0.356141	0.098348
	H409	H	0.122822	0.418916	0.098747
	H410	H	0.024229	0.336442	0.400814
	H411	H	0.086677	0.399100	0.401261
	H412	H	0.024167	0.336696	0.099484
	H413	H	0.086694	0.398747	0.099846
	H414	H	0.060265	0.356575	0.402382
	H415	H	0.122763	0.418837	0.402487
	H416	H	0.032342	0.384314	0.349441
	H417	H	0.094222	0.327310	0.617717
	H418	H	0.044862	0.390813	-0.149403
	H419	H	0.103464	0.301143	0.043689
	H420	H	0.044869	0.390575	0.349896
	H421	H	0.103859	0.302208	0.617462
	H422	H	0.032336	0.384374	-0.149840
	H423	H	0.093784	0.326274	0.043582
	H424	H	0.048988	0.345868	0.398097
	H425	H	0.111352	0.409283	0.102539
	H426	H	0.036170	0.341756	0.102196
	H427	H	0.098800	0.403414	0.398111
	H428	H	0.036362	0.340199	0.398347
	H429	H	0.098751	0.403610	0.102781
	H430	H	0.048743	0.347522	0.101805
	H431	H	0.111422	0.409183	0.398025
	Co432	Co	0.134904	0.444999	0.126531
	Co433	Co	0.072430	0.382387	0.125746
	Co434	Co	0.009952	0.319666	0.375242
	Co435	Co	0.072439	0.382445	0.375406
	C436	C	0.018680	0.383785	0.421640
	C437	C	0.084015	0.352925	0.422829
	C438	C	0.058092	0.396026	0.078727
	C439	C	0.113463	0.275240	0.075687
	C440	C	0.058080	0.396108	0.422675
	C441	C	0.113613	0.275607	0.423188
	C442	C	0.018662	0.383631	0.076971
	C443	C	0.083909	0.352508	0.077244
	C444	C	0.061330	0.357973	0.172912
	C445	C	0.123814	0.420617	0.173220
	C446	C	0.022952	0.335830	0.327440
	C447	C	0.085449	0.398465	0.327762
	C448	C	0.022944	0.335940	0.173063
	C449	C	0.085475	0.398263	0.173601
	C450	C	0.061283	0.358128	0.327823
	C451	C	0.123792	0.420544	0.328329
	C452	C	0.023361	0.382562	0.499365
	C453	C	0.087420	0.343838	0.000301
	C454	C	0.053425	0.395838	0.500207
	C455	C	0.110192	0.284405	-0.000582
	C456	C	0.057273	0.352940	0.250248
	C457	C	0.119808	0.415479	0.250572
	C458	C	0.027443	0.338206	0.250290
	C459	C	0.089957	0.400563	0.250777
	C460	C	0.031097	0.384568	0.499688
	C461	C	0.093240	0.328904	0.000418
	C462	C	0.045814	0.392431	0.500197
	C463	C	0.104494	0.299631	-0.000211
	C464	C	0.049966	0.347412	0.249985
	C465	C	0.112481	0.409927	0.250546
	C466	C	0.035113	0.340907	0.250185
	C467	C	0.097631	0.403338	0.250586
	C468	C	0.034966	0.385924	0.416290
	C469	C	0.096237	0.321671	0.565832
	C470	C	0.042103	0.389894	-0.083018
	C471	C	0.101471	0.306879	0.024533
	C472	C	0.042109	0.389658	0.416518
	C473	C	0.101724	0.307478	0.565735
	C474	C	0.034970	0.386099	-0.083320
	C475	C	0.096007	0.321095	0.024655
	C476	C	0.046227	0.345018	0.332731
	C477	C	0.108666	0.407985	0.168091
	C478	C	0.038913	0.342652	0.167633
	C479	C	0.101501	0.404669	0.332759
	C480	C	0.039019	0.341820	0.332837
	C481	C	0.101469	0.404756	0.168223
	C482	C	0.046116	0.345863	0.167472
	C483	C	0.108694	0.407936	0.332810
	N484	N	0.011739	0.386444	0.450436
	N485	N	0.078894	0.365723	0.452720
	N486	N	0.065033	0.395465	0.050199
	N487	N	0.118443	0.261974	0.047069
	N488	N	0.065043	0.395477	0.451088
	N489	N	0.118514	0.262233	0.452032
	N490	N	0.011713	0.386304	0.047684
	N491	N	0.078833	0.365502	0.048185
	N492	N	0.067079	0.366056	0.202280
	N493	N	0.129581	0.428642	0.202944
	N494	N	0.016333	0.332379	0.298504
	N495	N	0.078837	0.395082	0.298885
	N496	N	0.016345	0.332406	0.201763
	N497	N	0.078853	0.394981	0.202202
	N498	N	0.067055	0.366116	0.298916
	N499	N	0.129557	0.428618	0.299477
	H500	H	0.020062	0.382941	0.847202
	H501	H	0.084900	0.350587	0.849458
	H502	H	0.056764	0.396275	0.652478
	H503	H	0.112685	0.277902	0.649276
	H504	H	0.056760	0.396810	0.848232
	H505	H	0.112853	0.278305	0.850435
	H506	H	0.019936	0.382932	0.651430
	H507	H	0.084627	0.349468	0.650743
	H508	H	0.060336	0.356020	0.599708
	H509	H	0.122825	0.418934	0.599247
	H510	H	0.024072	0.337055	0.900883
	H511	H	0.086705	0.398975	0.900780
	H512	H	0.024226	0.336298	0.598594
	H513	H	0.086611	0.399238	0.598912
	H514	H	0.060238	0.356607	0.902666
	H515	H	0.122715	0.418967	0.902437
	H516	H	0.032147	0.385621	1.150495
	H517	H	0.094238	0.327369	0.957372
	H518	H	0.044649	0.391928	0.650537
	H519	H	0.103538	0.301367	0.382579
	H520	H	0.044652	0.391916	1.150969
	H521	H	0.103915	0.302245	0.956234
	H522	H	0.032157	0.385510	0.650256
	H523	H	0.093856	0.326365	0.382648
	H524	H	0.048805	0.347166	0.602964
	H525	H	0.111362	0.409597	0.601973
	H526	H	0.036291	0.340170	0.898277
	H527	H	0.098757	0.403344	0.898160
	H528	H	0.036164	0.341603	0.602512
	H529	H	0.098758	0.403727	0.601579
	H530	H	0.048928	0.345775	0.898628
	H531	H	0.111410	0.408871	0.898316
	Co532	Co	0.134937	0.445042	0.626447
	Co533	Co	0.072408	0.382244	0.625330
	Co534	Co	0.009948	0.319877	0.875037
	Co535	Co	0.072413	0.382529	0.876023
	C536	C	0.018724	0.383798	0.921801
	C537	C	0.083989	0.352785	0.923537
	C538	C	0.058084	0.395943	0.577906
	C539	C	0.113588	0.275503	0.576110
	C540	C	0.058089	0.396256	0.923261
	C541	C	0.113630	0.275595	0.923179
	C542	C	0.018650	0.383770	0.576885
	C543	C	0.083842	0.352255	0.576855
	C544	C	0.061314	0.357860	0.673491
	C545	C	0.123804	0.420669	0.673491
	C546	C	0.022910	0.336119	0.827103
	C547	C	0.085453	0.398389	0.827077
	C548	C	0.022981	0.335796	0.672654
	C549	C	0.085417	0.398537	0.672850
	C550	C	0.061240	0.358191	0.828489
	C551	C	0.123733	0.420695	0.828277
	C552	C	0.023375	0.382549	0.999766
	C553	C	0.087425	0.343781	0.499696
	C554	C	0.053430	0.395887	1.000907
	C555	C	0.110247	0.284656	0.499707
	C556	C	0.057254	0.352930	0.750922
	C557	C	0.119773	0.415521	0.750605
	C558	C	0.027423	0.338089	0.749962
	C559	C	0.089925	0.400617	0.749860
	C560	C	0.031106	0.384593	1.000233
	C561	C	0.093246	0.328907	0.499724
	C562	C	0.045819	0.392457	1.000627
	C563	C	0.104519	0.299732	0.499611
	C564	C	0.049931	0.347370	0.750757
	C565	C	0.112438	0.409979	0.750410
	C566	C	0.035084	0.340933	0.750288
	C567	C	0.097591	0.403471	0.749850
	C568	C	0.034866	0.386756	1.083944
	C569	C	0.096243	0.321665	0.975972
	C570	C	0.041989	0.390451	0.583748
	C571	C	0.101522	0.307000	0.433742
	C572	C	0.042013	0.390497	1.084013
	C573	C	0.101724	0.307477	0.975651
	C574	C	0.034845	0.386709	0.583426
	C575	C	0.096038	0.321192	0.433867
	C576	C	0.046121	0.345703	0.668200
	C577	C	0.108642	0.408137	0.667483
	C578	C	0.038970	0.341862	0.833008
	C579	C	0.101455	0.404678	0.832556
	C580	C	0.038916	0.342553	0.667866
	C581	C	0.101444	0.404979	0.667278
	C582	C	0.046166	0.345004	0.833208
	C583	C	0.108645	0.407892	0.832894
	N584	N	0.011764	0.386395	0.950158
	N585	N	0.078878	0.365673	0.952903
	N586	N	0.065045	0.395382	0.549413
	N587	N	0.118498	0.262171	0.547068
	N588	N	0.065042	0.395640	0.951875
	N589	N	0.118529	0.262158	0.952046
	N590	N	0.011708	0.386475	0.547850
	N591	N	0.078806	0.365322	0.547987
	N592	N	0.067039	0.366067	0.702723
	N593	N	0.129535	0.428794	0.703165
	N594	N	0.016305	0.332593	0.798162
	N595	N	0.078804	0.395066	0.798654
	N596	N	0.016341	0.332475	0.701281
	N597	N	0.078794	0.395047	0.701833
	N598	N	0.066974	0.366313	0.799117
	N599	N	0.129488	0.428808	0.799510
	H600	H	0.014597	0.466617	0.347638
	H601	H	0.082443	0.445929	0.347414
	H602	H	0.051420	0.480298	0.152105
	H603	H	0.119266	0.459092	0.153559
	H604	H	0.051333	0.480532	0.347673
	H605	H	0.119227	0.459278	0.348795
	H606	H	0.014579	0.466847	0.151232
	H607	H	0.082399	0.445348	0.152463
	H608	H	0.054039	0.439853	0.098495
	H609	H	0.116513	0.502502	0.097744
	H610	H	0.017277	0.423163	0.400995
	H611	H	0.079723	0.485810	0.401684
	H612	H	0.017326	0.422873	0.097175
	H613	H	0.079799	0.485395	0.097287
	H614	H	0.053890	0.440439	0.402312
	H615	H	0.116324	0.502946	0.402309
	H616	H	0.026627	0.471059	0.349965
	H617	H	0.094663	0.447817	0.650450
	H618	H	0.039068	0.479022	0.149576
	H619	H	0.107171	0.454572	0.151971
	H620	H	0.039150	0.477404	0.349782
	H621	H	0.107158	0.454196	0.650840
	H622	H	0.026576	0.472611	0.149642
	H623	H	0.094741	0.447733	0.151394
	H624	H	0.042026	0.433402	0.400791
	H625	H	0.104516	0.495993	0.400396
	H626	H	0.029294	0.429977	0.098734
	H627	H	0.091705	0.492603	0.099290
	H628	H	0.029330	0.428843	0.400288
	H629	H	0.091788	0.491302	0.399915
	H630	H	0.041967	0.434451	0.099303
	H631	H	0.104416	0.497161	0.099218
	Co632	Co	0.129423	0.525368	0.125368
	Co633	Co	0.066918	0.462679	0.124271
	Co634	Co	0.004435	0.400289	0.374836
	Co635	Co	0.066874	0.463059	0.375578
	C636	C	0.013240	0.467144	0.422087
	C637	C	0.081160	0.446389	0.422199
	C638	C	0.052708	0.479400	0.077436
	C639	C	0.120579	0.458635	0.079228
	C640	C	0.052633	0.479602	0.422634
	C641	C	0.120540	0.458673	0.423661
	C642	C	0.013274	0.467274	0.077066
	C643	C	0.081160	0.446088	0.077979
	C644	C	0.055094	0.441366	0.172916
	C645	C	0.117581	0.503969	0.172974
	C646	C	0.016250	0.421724	0.326583
	C647	C	0.078664	0.484518	0.327021
	C648	C	0.016270	0.421715	0.171678
	C649	C	0.078721	0.484204	0.172041
	C650	C	0.055047	0.441602	0.328009
	C651	C	0.117512	0.504091	0.328319
	C652	C	0.017910	0.467258	0.499917
	C653	C	0.085880	0.445088	0.000705
	C654	C	0.047925	0.480603	0.500062
	C655	C	0.115924	0.458646	0.001573
	C656	C	0.050772	0.437822	0.250402
	C657	C	0.113245	0.500349	0.250561
	C658	C	0.020549	0.425408	0.249130
	C659	C	0.082978	0.488044	0.249736
	C660	C	0.025507	0.470600	0.500018
	C661	C	0.093607	0.447155	0.001079
	C662	C	0.040203	0.478622	0.499992
	C663	C	0.108315	0.455216	0.001643
	C664	C	0.043165	0.434208	0.250094
	C665	C	0.105647	0.496687	0.250085
	C666	C	0.028118	0.429074	0.249550
	C667	C	0.090576	0.491668	0.249663
	C668	C	0.029290	0.472562	0.416526
	C669	C	0.097362	0.449091	0.584056
	C670	C	0.036439	0.477234	0.083008
	C671	C	0.104523	0.453037	0.085033
	C672	C	0.036436	0.476408	0.416437
	C673	C	0.104483	0.452900	0.584080
	C674	C	0.029292	0.473527	0.083057
	C675	C	0.097388	0.449265	0.084715
	C676	C	0.039295	0.432658	0.333708
	C677	C	0.101784	0.495133	0.333494
	C678	C	0.032013	0.430632	0.165998
	C679	C	0.094449	0.493338	0.165996
	C680	C	0.032019	0.430105	0.333455
	C681	C	0.094504	0.492630	0.333239
	C682	C	0.039274	0.433230	0.166282
	C683	C	0.101742	0.495768	0.166261
	N684	N	0.006276	0.467907	0.450536
	N685	N	0.074193	0.449046	0.451019
	N686	N	0.059651	0.476745	0.048744
	N687	N	0.127523	0.457990	0.050536
	N688	N	0.059567	0.476933	0.451306
	N689	N	0.127508	0.458001	0.452358
	N690	N	0.006315	0.467995	0.048533
	N691	N	0.074226	0.448758	0.048675
	N692	N	0.061303	0.447415	0.201853
	N693	N	0.123774	0.510046	0.202271
	N694	N	0.010037	0.415651	0.297758
	N695	N	0.072451	0.478408	0.298280
	N696	N	0.010075	0.415563	0.200304
	N697	N	0.072492	0.478106	0.201072
	N698	N	0.061263	0.447643	0.298942
	N699	N	0.123724	0.510124	0.299577
	H700	H	0.014617	0.467028	0.846911
	H701	H	0.082522	0.445405	0.848306
	H702	H	0.051349	0.480153	0.652211
	H703	H	0.119247	0.458990	0.654031
	H704	H	0.051431	0.480482	0.847755
	H705	H	0.119219	0.459466	0.849366
	H706	H	0.014527	0.466735	0.652422
	H707	H	0.082365	0.445432	0.652524
	H708	H	0.054068	0.440098	0.597765
	H709	H	0.116502	0.502770	0.598909
	H710	H	0.017357	0.423371	0.900655
	H711	H	0.079875	0.485740	0.901786
	H712	H	0.017446	0.423106	0.597189
	H713	H	0.079904	0.485789	0.597547
	H714	H	0.054098	0.440089	0.901862
	H715	H	0.116421	0.502844	0.903410
	H716	H	0.026703	0.470978	0.849412
	H717	H	0.094842	0.447168	0.850685
	H718	H	0.038942	0.479023	0.650513
	H719	H	0.107266	0.453729	0.350500
	H720	H	0.039221	0.477621	0.849687
	H721	H	0.107304	0.454001	0.851473
	H722	H	0.026473	0.472621	0.650209
	H723	H	0.094746	0.447252	0.350113
	H724	H	0.042067	0.434134	0.598947
	H725	H	0.104523	0.496925	0.599552
	H726	H	0.029414	0.428738	0.899759
	H727	H	0.091835	0.491631	0.900535
	H728	H	0.029353	0.429701	0.599051
	H729	H	0.091806	0.492263	0.599083
	H730	H	0.042066	0.433457	0.900382
	H731	H	0.104534	0.496350	0.900833
	Co732	Co	0.129410	0.525653	0.625213
	Co733	Co	0.066920	0.462989	0.624330
	Co734	Co	0.004502	0.400408	0.874331
	Co735	Co	0.066987	0.462848	0.875723
	C736	C	0.013268	0.467400	0.921727
	C737	C	0.081222	0.446377	0.922607
	C738	C	0.052631	0.479363	0.577703
	C739	C	0.120546	0.458564	0.578961
	C740	C	0.052718	0.479493	0.922007
	C741	C	0.120557	0.458850	0.923656
	C742	C	0.013223	0.467165	0.577523
	C743	C	0.081129	0.446316	0.577604
	C744	C	0.055150	0.441445	0.672293
	C745	C	0.117604	0.504200	0.673147
	C746	C	0.016269	0.421903	0.826276
	C747	C	0.078779	0.484363	0.827366
	C748	C	0.016296	0.421778	0.671525
	C749	C	0.078786	0.484358	0.672139
	C750	C	0.055157	0.441403	0.827205
	C751	C	0.117563	0.504205	0.828311
	C752	C	0.017942	0.467512	0.999421
	C753	C	0.085805	0.445248	0.500122
	C754	C	0.048006	0.480676	0.999676
	C755	C	0.115898	0.458533	0.501179
	C756	C	0.050844	0.437755	0.749766
	C757	C	0.113270	0.500566	0.750653
	C758	C	0.020601	0.425421	0.749068
	C759	C	0.083075	0.488005	0.749681
	C760	C	0.025570	0.470810	0.999565
	C761	C	0.093559	0.447227	0.500394
	C762	C	0.040267	0.478661	0.999538
	C763	C	0.108269	0.455173	0.500714
	C764	C	0.043269	0.434129	0.749695
	C765	C	0.105681	0.496893	0.750320
	C766	C	0.028219	0.428991	0.749301
	C767	C	0.090660	0.491669	0.749762
	C768	C	0.029373	0.472634	0.915955
	C769	C	0.097449	0.448893	0.917585
	C770	C	0.036341	0.477212	0.583617
	C771	C	0.104530	0.452711	0.416960
	C772	C	0.036518	0.476391	0.916024
	C773	C	0.104582	0.452728	0.917937
	C774	C	0.029216	0.473301	0.583560
	C775	C	0.097402	0.448943	0.416887
	C776	C	0.039368	0.433026	0.665964
	C777	C	0.101810	0.495719	0.666374
	C778	C	0.032110	0.430050	0.832982
	C779	C	0.094552	0.492778	0.833713
	C780	C	0.032091	0.430551	0.665736
	C781	C	0.094540	0.493119	0.665976
	C782	C	0.039386	0.432637	0.833312
	C783	C	0.101819	0.495369	0.833762
	N784	N	0.006309	0.468059	0.950244
	N785	N	0.074258	0.448849	0.950966
	N786	N	0.059563	0.476833	0.549043
	N787	N	0.127503	0.457951	0.550639
	N788	N	0.059651	0.476747	0.951315
	N789	N	0.127524	0.458108	0.952281
	N790	N	0.006275	0.467915	0.548567
	N791	N	0.074181	0.448933	0.548644
	N792	N	0.061368	0.447470	0.701007
	N793	N	0.123810	0.510258	0.702549
	N794	N	0.010026	0.415936	0.797195
	N795	N	0.072559	0.478276	0.798501
	N796	N	0.010033	0.415915	0.700269
	N797	N	0.072566	0.478276	0.701219
	N798	N	0.061370	0.447446	0.798548
	N799	N	0.123790	0.510245	0.799617
	H800	H	0.018366	0.640981	0.348721
	H801	H	0.077046	0.529159	0.347622
	H802	H	0.048349	0.574475	0.150262
	H803	H	0.113881	0.542784	0.153229
	H804	H	0.048381	0.574490	0.348231
	H805	H	0.113872	0.543021	0.348194
	H806	H	0.018231	0.640548	0.150518
	H807	H	0.077058	0.529433	0.152368
	H808	H	0.047149	0.526958	0.098544
	H809	H	0.109736	0.588286	0.099485
	H810	H	0.011090	0.506655	0.401186
	H811	H	0.073491	0.569244	0.401724
	H812	H	0.011094	0.507015	0.098611
	H813	H	0.073517	0.569585	0.097662
	H814	H	0.047148	0.526660	0.400729
	H815	H	0.109620	0.589473	0.402239
	H816	H	0.028693	0.620811	0.550991
	H817	H	0.089108	0.534059	0.349593
	H818	H	0.038696	0.596609	0.036209
	H819	H	0.101517	0.541422	0.150424
	H820	H	0.039174	0.597939	0.551068
	H821	H	0.101583	0.540644	0.349670
	H822	H	0.028242	0.619575	0.035372
	H823	H	0.089023	0.534946	0.149806
	H824	H	0.034996	0.523340	0.102320
	H825	H	0.097556	0.585234	0.103544
	H826	H	0.022583	0.515703	0.397716
	H827	H	0.084941	0.578794	0.398162
	H828	H	0.022357	0.517496	0.102456
	H829	H	0.084907	0.579692	0.102740
	H830	H	0.035215	0.521439	0.397430
	H831	H	0.097566	0.584527	0.398806
	Co832	Co	0.123778	0.605706	0.125055
	Co833	Co	0.061358	0.543634	0.124216
	Co834	Co	-0.001120	0.480931	0.374352
	Co835	Co	0.061328	0.543539	0.374354
	C836	C	0.017403	0.642949	0.423093
	C837	C	0.075701	0.529684	0.422197
	C838	C	0.049377	0.572121	0.076473
	C839	C	0.115143	0.541991	0.078692
	C840	C	0.049411	0.572175	0.421992
	C841	C	0.115175	0.542150	0.422917
	C842	C	0.017287	0.642725	0.076786
	C843	C	0.075748	0.529903	0.077725
	C844	C	0.048379	0.527337	0.172290
	C845	C	0.110947	0.589201	0.173442
	C846	C	0.010067	0.505111	0.327113
	C847	C	0.072529	0.567676	0.327046
	C848	C	0.010038	0.505341	0.172387
	C849	C	0.072520	0.567883	0.172033
	C850	C	0.048406	0.527207	0.326572
	C851	C	0.110886	0.589819	0.327982
	C852	C	0.021058	0.634553	0.500417
	C853	C	0.080419	0.530068	-0.000050
	C854	C	0.045776	0.580481	0.499073
	C855	C	0.110466	0.543259	0.000896
	C856	C	0.043903	0.525139	0.249618
	C857	C	0.106409	0.587474	0.250865
	C858	C	0.014075	0.510305	0.249926
	C859	C	0.076554	0.572810	0.249790
	C860	C	0.027334	0.620876	0.500001
	C861	C	0.088049	0.533315	-0.000182
	C862	C	0.039545	0.594270	0.499171
	C863	C	0.102752	0.541202	0.000365
	C864	C	0.036217	0.522348	0.249827
	C865	C	0.098719	0.584846	0.250967
	C866	C	0.021408	0.515893	0.250135
	C867	C	0.083866	0.578447	0.250265
	C868	C	0.030747	0.614990	0.528584
	C869	C	0.091789	0.535339	0.416385
	C870	C	0.036399	0.601323	0.019902
	C871	C	0.098899	0.539699	0.083803
	C872	C	0.036687	0.602068	0.528245
	C873	C	0.098949	0.539092	0.416469
	C874	C	0.030465	0.614307	0.019620
	C875	C	0.091754	0.535897	0.083354
	C876	C	0.032303	0.521576	0.167429
	C877	C	0.094849	0.583848	0.168506
	C878	C	0.025247	0.517315	0.332422
	C879	C	0.087665	0.580224	0.332962
	C880	C	0.025113	0.518368	0.167680
	C881	C	0.087646	0.580684	0.167992
	C882	C	0.032433	0.520553	0.332508
	C883	C	0.094861	0.583384	0.333184
	N884	N	0.011990	0.654963	0.452831
	N885	N	0.068730	0.530479	0.450782
	N886	N	0.054750	0.559940	0.047269
	N887	N	0.122082	0.539283	0.050107
	N888	N	0.054774	0.559970	0.451203
	N889	N	0.122096	0.539512	0.451870
	N890	N	0.011903	0.654863	0.047574
	N891	N	0.068786	0.530637	0.048768
	N892	N	0.055028	0.530687	0.200892
	N893	N	0.117569	0.592655	0.202191
	N894	N	0.004319	0.497048	0.297713
	N895	N	0.066753	0.559727	0.297518
	N896	N	0.004302	0.497151	0.201389
	N897	N	0.066725	0.559888	0.200972
	N898	N	0.055055	0.530595	0.297581
	N899	N	0.117545	0.592970	0.299215
	H900	H	0.018241	0.640620	0.849894
	H901	H	0.077081	0.529637	0.847590
	H902	H	0.048456	0.574470	0.649818
	H903	H	0.113849	0.543209	0.652754
	H904	H	0.048433	0.574673	0.848541
	H905	H	0.113916	0.542892	0.848795
	H906	H	0.018173	0.640162	0.651994
	H907	H	0.077040	0.529133	0.652443
	H908	H	0.047184	0.526336	0.598177
	H909	H	0.109782	0.588414	0.598947
	H910	H	0.010874	0.507057	0.901073
	H911	H	0.073488	0.569271	0.901329
	H912	H	0.011142	0.506706	0.597891
	H913	H	0.073404	0.569641	0.597382
	H914	H	0.047163	0.526561	0.900477
	H915	H	0.109624	0.589025	0.900966
	H916	H	0.028002	0.618510	0.964053
	H917	H	0.089208	0.533770	0.849921
	H918	H	0.038194	0.594504	0.447620
	H919	H	0.101542	0.540667	0.650400
	H920	H	0.038511	0.595538	0.963675
	H921	H	0.101715	0.540092	0.850363
	H922	H	0.027692	0.617329	0.448648
	H923	H	0.089040	0.534230	0.650258
	H924	H	0.035052	0.522078	0.897737
	H925	H	0.097496	0.585174	0.602110
	H926	H	0.022396	0.516848	0.601652
	H927	H	0.084984	0.578585	0.897388
	H928	H	0.022415	0.516408	0.897752
	H929	H	0.084873	0.579640	0.601845
	H930	H	0.035068	0.522392	0.602033
	H931	H	0.097602	0.584410	0.897446
	Co932	Co	0.123870	0.605699	0.625057
	Co933	Co	0.061351	0.543534	0.623971
	Co934	Co	-0.001099	0.480972	0.874626
	Co935	Co	0.061341	0.543591	0.874642
	C936	C	0.017283	0.642746	0.923057
	C937	C	0.075761	0.529975	0.922136
	C938	C	0.049436	0.572198	0.576194
	C939	C	0.115153	0.542171	0.578134
	C940	C	0.049414	0.572218	0.922225
	C941	C	0.115169	0.542044	0.923397
	C942	C	0.017292	0.642531	0.577778
	C943	C	0.075714	0.529737	0.577739
	C944	C	0.048375	0.527120	0.672458
	C945	C	0.110953	0.589291	0.673007
	C946	C	0.009953	0.505324	0.826578
	C947	C	0.072495	0.567702	0.826778
	C948	C	0.010047	0.505146	0.672186
	C949	C	0.072477	0.567827	0.672023
	C950	C	0.048396	0.527198	0.826622
	C951	C	0.110893	0.589619	0.827376
	C952	C	0.020984	0.634434	0.999921
	C953	C	0.080382	0.529821	0.499774
	C954	C	0.045716	0.580409	0.999343
	C955	C	0.110447	0.543307	0.500248
	C956	C	0.043892	0.524973	0.749581
	C957	C	0.106423	0.587313	0.750221
	C958	C	0.014038	0.510266	0.749485
	C959	C	0.076526	0.572820	0.749333
	C960	C	0.027254	0.620804	0.999599
	C961	C	0.088009	0.533098	0.499916
	C962	C	0.039469	0.594142	0.999335
	C963	C	0.102722	0.541110	0.500074
	C964	C	0.036219	0.522110	0.749616
	C965	C	0.098731	0.584707	0.749923
	C966	C	0.021368	0.515777	0.749655
	C967	C	0.083860	0.578293	0.749660
	C968	C	0.030330	0.613706	0.979547
	C969	C	0.091866	0.535193	0.916529
	C970	C	0.036139	0.600186	0.470314
	C971	C	0.098898	0.539279	0.583608
	C972	C	0.036273	0.600725	0.979148
	C973	C	0.099004	0.538929	0.916738
	C974	C	0.030206	0.613138	0.470972
	C975	C	0.091762	0.535453	0.583682
	C976	C	0.032350	0.520748	0.832361
	C977	C	0.094829	0.583707	0.667475
	C978	C	0.025136	0.517876	0.667149
	C979	C	0.087662	0.580106	0.832195
	C980	C	0.025150	0.517613	0.832275
	C981	C	0.087623	0.580522	0.667332
	C982	C	0.032347	0.520978	0.667184
	C983	C	0.094883	0.583184	0.832191
	N984	N	0.011902	0.654852	0.952385
	N985	N	0.068805	0.530653	0.950496
	N986	N	0.054783	0.559974	0.546914
	N987	N	0.122091	0.539576	0.549569
	N988	N	0.054776	0.560038	0.951338
	N989	N	0.122090	0.539358	0.952327
	N990	N	0.011937	0.654766	0.548418
	N991	N	0.068749	0.530488	0.548826
	N992	N	0.054987	0.530672	0.700759
	N993	N	0.117576	0.592720	0.701684
	N994	N	0.004206	0.497250	0.797185
	N995	N	0.066702	0.559813	0.797663
	N996	N	0.004256	0.497153	0.701125
	N997	N	0.066718	0.559782	0.701015
	N998	N	0.055017	0.530711	0.797754
	N999	N	0.117533	0.592954	0.798906
	H1000	H	0.015478	0.734119	0.347800
	H1001	H	0.080864	0.703174	0.349652
	H1002	H	0.052120	0.747537	0.152017
	H1003	H	0.110677	0.636231	0.151389
	H1004	H	0.052228	0.747787	0.348583
	H1005	H	0.110981	0.636863	0.350108
	H1006	H	0.015363	0.734440	0.152373
	H1007	H	0.080857	0.702996	0.151392
	H1008	H	0.055812	0.707721	0.098849
	H1009	H	0.118310	0.769920	0.098115
	H1010	H	0.019589	0.688120	0.401084
	H1011	H	0.082043	0.750986	0.402178
	H1012	H	0.019611	0.688104	0.098653
	H1013	H	0.082146	0.750547	0.098899
	H1014	H	0.055727	0.707914	0.402615
	H1015	H	0.118265	0.770268	0.402120
	H1016	H	0.027791	0.736073	0.350601
	H1017	H	0.090544	0.681125	0.475687
	H1018	H	0.040095	0.742964	0.151130
	H1019	H	0.100580	0.656744	0.018367
	H1020	H	0.040262	0.742629	0.350527
	H1021	H	0.100960	0.657899	0.475175
	H1022	H	0.027582	0.736717	0.151142
	H1023	H	0.090139	0.679733	0.018146
	H1024	H	0.044349	0.697676	0.398869
	H1025	H	0.106815	0.760737	0.102366
	H1026	H	0.031750	0.692464	0.102009
	H1027	H	0.094244	0.754555	0.398505
	H1028	H	0.031718	0.692064	0.398538
	H1029	H	0.094121	0.755443	0.102782
	H1030	H	0.044338	0.698075	0.102479
	H1031	H	0.106882	0.760147	0.398230
	Co1032	Co	0.130373	0.796062	0.125261
	Co1033	Co	0.067876	0.733778	0.125587
	Co1034	Co	0.005400	0.671406	0.375376
	Co1035	Co	0.067924	0.733762	0.375903
	C1036	C	0.014155	0.734866	0.422429
	C1037	C	0.079892	0.705242	0.423626
	C1038	C	0.053469	0.747241	0.077938
	C1039	C	0.111762	0.634172	0.077892
	C1040	C	0.053539	0.747427	0.423320
	C1041	C	0.111941	0.634445	0.423361
	C1042	C	0.014070	0.735011	0.077616
	C1043	C	0.079841	0.705325	0.077768
	C1044	C	0.056771	0.709348	0.173354
	C1045	C	0.119255	0.771645	0.172776
	C1046	C	0.018370	0.687593	0.327061
	C1047	C	0.080852	0.750244	0.328116
	C1048	C	0.018380	0.687596	0.172747
	C1049	C	0.080873	0.750064	0.173304
	C1050	C	0.056727	0.709520	0.328313
	C1051	C	0.119248	0.771824	0.327731
	C1052	C	0.018830	0.733795	0.500257
	C1053	C	0.083541	0.697038	0.000826
	C1054	C	0.048890	0.747266	0.500928
	C1055	C	0.108180	0.642734	0.000944
	C1056	C	0.052745	0.704310	0.250930
	C1057	C	0.115245	0.766638	0.250436
	C1058	C	0.022863	0.689718	0.249960
	C1059	C	0.085333	0.752345	0.250686
	C1060	C	0.026572	0.735956	0.500677
	C1061	C	0.089796	0.683319	0.000981
	C1062	C	0.041267	0.743932	0.500791
	C1063	C	0.101977	0.656544	0.001163
	C1064	C	0.045415	0.698761	0.250648
	C1065	C	0.107895	0.761254	0.250324
	C1066	C	0.030530	0.692379	0.250170
	C1067	C	0.093027	0.755013	0.250651
	C1068	C	0.030421	0.737614	0.417128
	C1069	C	0.092899	0.676162	0.486098
	C1070	C	0.037406	0.741749	0.084127
	C1071	C	0.098584	0.662494	0.010837
	C1072	C	0.037538	0.741460	0.417201
	C1073	C	0.098809	0.663092	0.486215
	C1074	C	0.030262	0.737981	0.084049
	C1075	C	0.092646	0.675504	0.010874
	C1076	C	0.041614	0.696604	0.333147
	C1077	C	0.104085	0.759532	0.167709
	C1078	C	0.034415	0.693676	0.167747
	C1079	C	0.096927	0.756059	0.333081
	C1080	C	0.034405	0.693428	0.332946
	C1081	C	0.096871	0.756497	0.167887
	C1082	C	0.041615	0.696873	0.167978
	C1083	C	0.104139	0.759040	0.332870
	N1084	N	0.007195	0.737211	0.451384
	N1085	N	0.074466	0.717189	0.452981
	N1086	N	0.060431	0.746675	0.049575
	N1087	N	0.117185	0.622159	0.048416
	N1088	N	0.060509	0.746738	0.451958
	N1089	N	0.117316	0.622314	0.452850
	N1090	N	0.007113	0.737341	0.048840
	N1091	N	0.074441	0.717367	0.048153
	N1092	N	0.062507	0.717514	0.202568
	N1093	N	0.125008	0.779765	0.201855
	N1094	N	0.011740	0.684291	0.298628
	N1095	N	0.074237	0.746717	0.299458
	N1096	N	0.011739	0.684353	0.201366
	N1097	N	0.074247	0.746627	0.202105
	N1098	N	0.062501	0.717554	0.299085
	N1099	N	0.124999	0.779871	0.298386
	H1100	H	0.015315	0.733561	0.847990
	H1101	H	0.080787	0.702604	0.850055
	H1102	H	0.052251	0.747803	0.653598
	H1103	H	0.110901	0.636580	0.651389
	H1104	H	0.052168	0.748066	0.847631
	H1105	H	0.111055	0.637414	0.849932
	H1106	H	0.015441	0.733911	0.652004
	H1107	H	0.080882	0.702846	0.651851
	H1108	H	0.055765	0.707744	0.598276
	H1109	H	0.118259	0.770402	0.598183
	H1110	H	0.019557	0.688361	0.901249
	H1111	H	0.082136	0.750470	0.902358
	H1112	H	0.019628	0.688125	0.599486
	H1113	H	0.082102	0.750830	0.599781
	H1114	H	0.055745	0.707704	0.902167
	H1115	H	0.118320	0.770400	0.901647
	H1116	H	0.027693	0.736098	0.849569
	H1117	H	0.091207	0.683290	0.983793
	H1118	H	0.040152	0.743052	0.650887
	H1119	H	0.101239	0.658626	0.524447
	H1120	H	0.040157	0.742542	0.850103
	H1121	H	0.101654	0.660238	0.983892
	H1122	H	0.027634	0.736755	0.650618
	H1123	H	0.090823	0.681605	0.524666
	H1124	H	0.044240	0.698596	0.601741
	H1125	H	0.106782	0.760864	0.601494
	H1126	H	0.031723	0.692079	0.899181
	H1127	H	0.094292	0.754527	0.898431
	H1128	H	0.031616	0.693176	0.601922
	H1129	H	0.094166	0.755276	0.601727
	H1130	H	0.044369	0.697740	0.898655
	H1131	H	0.106849	0.760509	0.897767
	Co1132	Co	0.130424	0.796202	0.624475
	Co1133	Co	0.067926	0.733656	0.625705
	Co1134	Co	0.005352	0.671337	0.875258
	Co1135	Co	0.067808	0.733808	0.875606
	C1136	C	0.014070	0.734616	0.922399
	C1137	C	0.079811	0.705131	0.923439
	C1138	C	0.053549	0.747411	0.578533
	C1139	C	0.111898	0.634296	0.577484
	C1140	C	0.053491	0.747526	0.922427
	C1141	C	0.111972	0.634759	0.923851
	C1142	C	0.014131	0.734749	0.577884
	C1143	C	0.079889	0.705109	0.577832
	C1144	C	0.056772	0.709380	0.672677
	C1145	C	0.119251	0.772065	0.672272
	C1146	C	0.018314	0.687654	0.827307
	C1147	C	0.080899	0.749818	0.828152
	C1148	C	0.018350	0.687594	0.672955
	C1149	C	0.080879	0.750017	0.673248
	C1150	C	0.056734	0.709433	0.827728
	C1151	C	0.119271	0.772037	0.827122
	C1152	C	0.018764	0.733797	0.999983
	C1153	C	0.083604	0.696965	0.500630
	C1154	C	0.048819	0.747200	1.000091
	C1155	C	0.108213	0.642599	0.500410
	C1156	C	0.052729	0.704313	0.750310
	C1157	C	0.115223	0.767025	0.749763
	C1158	C	0.022824	0.689820	0.750413
	C1159	C	0.085382	0.752103	0.750664
	C1160	C	0.026472	0.735922	1.000134
	C1161	C	0.089853	0.683277	0.500236
	C1162	C	0.041197	0.743833	1.000235
	C1163	C	0.101995	0.656369	0.500161
	C1164	C	0.045393	0.698880	0.750486
	C1165	C	0.107901	0.761504	0.749576
	C1166	C	0.030496	0.692590	0.750711
	C1167	C	0.093047	0.754885	0.750327
	C1168	C	0.030315	0.737576	0.916566
	C1169	C	0.093227	0.677465	0.991420
	C1170	C	0.037456	0.741837	0.584091
	C1171	C	0.098942	0.663467	0.513855
	C1172	C	0.037449	0.741397	0.916676
	C1173	C	0.099140	0.664396	0.991481
	C1174	C	0.030324	0.738058	0.584162
	C1175	C	0.093048	0.676564	0.514001
	C1176	C	0.041551	0.697221	0.667769
	C1177	C	0.104080	0.759601	0.666980
	C1178	C	0.034400	0.693624	0.833347
	C1179	C	0.096937	0.756087	0.832592
	C1180	C	0.034342	0.694109	0.667847
	C1181	C	0.096877	0.756336	0.667424
	C1182	C	0.041616	0.696684	0.833096
	C1183	C	0.104140	0.759291	0.832337
	N1184	N	0.007117	0.737052	0.951135
	N1185	N	0.074415	0.717230	0.952447
	N1186	N	0.060505	0.746731	0.550120
	N1187	N	0.117277	0.622178	0.548422
	N1188	N	0.060441	0.746875	0.951278
	N1189	N	0.117315	0.622474	0.952796
	N1190	N	0.007180	0.737105	0.548815
	N1191	N	0.074448	0.717132	0.548498
	N1192	N	0.062529	0.717426	0.702147
	N1193	N	0.125034	0.779994	0.701395
	N1194	N	0.011695	0.684243	0.798521
	N1195	N	0.074282	0.746423	0.799217
	N1196	N	0.011737	0.684152	0.701454
	N1197	N	0.074264	0.746557	0.702060
	N1198	N	0.062493	0.717471	0.798565
	N1199	N	0.125060	0.779936	0.797941
	H1200	H	0.009540	0.821371	0.346838
	H1201	H	0.077933	0.796483	0.349145
	H1202	H	0.046792	0.830441	0.152351
	H1203	H	0.114709	0.810000	0.152074
	H1204	H	0.046773	0.830638	0.348794
	H1205	H	0.114672	0.810197	0.347771
	H1206	H	0.009464	0.821632	0.152344
	H1207	H	0.077936	0.796120	0.152500
	H1208	H	0.049395	0.790704	0.098211
	H1209	H	0.111933	0.853041	0.097671
	H1210	H	0.012645	0.773964	0.402216
	H1211	H	0.075136	0.836887	0.402597
	H1212	H	0.012552	0.774508	0.098339
	H1213	H	0.075242	0.836623	0.098180
	H1214	H	0.049335	0.790907	0.402886
	H1215	H	0.111861	0.853392	0.402463
	H1216	H	0.021847	0.823410	0.349708
	H1217	H	0.090222	0.798875	0.651359
	H1218	H	0.034516	0.828361	-0.150753
	H1219	H	0.102658	0.805276	-0.150504
	H1220	H	0.034517	0.828485	0.350207
	H1221	H	0.102719	0.805374	0.650624
	H1222	H	0.021894	0.823127	-0.150455
	H1223	H	0.090163	0.798698	-0.150640
	H1224	H	0.037284	0.785542	0.099645
	H1225	H	0.099882	0.847214	0.400623
	H1226	H	0.024611	0.780405	0.401191
	H1227	H	0.087077	0.843335	0.099847
	H1228	H	0.024574	0.781011	0.099921
	H1229	H	0.087136	0.843004	0.400966
	H1230	H	0.037334	0.784750	0.401420
	H1231	H	0.099831	0.847780	0.099255
	Co1232	Co	0.124906	0.875772	0.124691
	Co1233	Co	0.062388	0.813226	0.125304
	Co1234	Co	-0.000134	0.750919	0.375649
	Co1235	Co	0.062351	0.813351	0.376322
	C1236	C	0.008258	0.822237	0.421939
	C1237	C	0.076667	0.797300	0.422935
	C1238	C	0.048061	0.829691	0.077951
	C1239	C	0.116019	0.809666	0.077733
	C1240	C	0.048076	0.829782	0.423332
	C1241	C	0.116048	0.809904	0.422405
	C1242	C	0.008218	0.822450	0.077661
	C1243	C	0.076646	0.797045	0.077962
	C1244	C	0.050526	0.792051	0.173091
	C1245	C	0.113029	0.854548	0.172255
	C1246	C	0.011582	0.772817	0.327674
	C1247	C	0.074068	0.835398	0.328087
	C1248	C	0.011518	0.773124	0.172884
	C1249	C	0.074132	0.835117	0.173060
	C1250	C	0.050468	0.792289	0.328283
	C1251	C	0.113001	0.854708	0.327403
	C1252	C	0.012935	0.821085	0.499742
	C1253	C	0.081330	0.796133	0.000093
	C1254	C	0.043382	0.830896	0.500940
	C1255	C	0.111360	0.809626	-0.000045
	C1256	C	0.046139	0.788740	0.250579
	C1257	C	0.108665	0.851154	0.249866
	C1258	C	0.015838	0.776702	0.250188
	C1259	C	0.078366	0.839160	0.250562
	C1260	C	0.020685	0.822986	0.500040
	C1261	C	0.089055	0.798313	-0.000063
	C1262	C	0.035603	0.829186	0.500753
	C1263	C	0.103753	0.806289	-0.000052
	C1264	C	0.038505	0.785349	0.250421
	C1265	C	0.101038	0.847770	0.249887
	C1266	C	0.023411	0.780428	0.250401
	C1267	C	0.085942	0.842916	0.250376
	C1268	C	0.024554	0.824493	0.416571
	C1269	C	0.092861	0.800280	0.584321
	C1270	C	0.031802	0.827380	-0.083641
	C1271	C	0.099986	0.803965	-0.083852
	C1272	C	0.031783	0.827410	0.416841
	C1273	C	0.100005	0.804134	0.584068
	C1274	C	0.024588	0.824325	-0.083498
	C1275	C	0.092849	0.800153	-0.083891
	C1276	C	0.034596	0.784441	0.166640
	C1277	C	0.097156	0.846406	0.333573
	C1278	C	0.027330	0.781482	0.334246
	C1279	C	0.089819	0.844312	0.166514
	C1280	C	0.027305	0.781953	0.166711
	C1281	C	0.089850	0.844068	0.333971
	C1282	C	0.034629	0.783878	0.334088
	C1283	C	0.097118	0.846765	0.166263
	N1284	N	0.001297	0.824888	0.450563
	N1285	N	0.069732	0.799705	0.451708
	N1286	N	0.055005	0.826947	0.049204
	N1287	N	0.122971	0.808961	0.049194
	N1288	N	0.055023	0.827095	0.452249
	N1289	N	0.122994	0.809203	0.451081
	N1290	N	0.001289	0.825148	0.048567
	N1291	N	0.069687	0.799508	0.049206
	N1292	N	0.056794	0.797830	0.202226
	N1293	N	0.119306	0.860307	0.201114
	N1294	N	0.005396	0.766582	0.299020
	N1295	N	0.067930	0.828924	0.299026
	N1296	N	0.005361	0.766719	0.201786
	N1297	N	0.067954	0.828806	0.201975
	N1298	N	0.056744	0.798019	0.299420
	N1299	N	0.119260	0.860490	0.298399
	H1300	H	0.009565	0.821479	0.848188
	H1301	H	0.077909	0.796572	0.847249
	H1302	H	0.046758	0.830790	0.653307
	H1303	H	0.114683	0.810432	0.652537
	H1304	H	0.046821	0.830713	0.847929
	H1305	H	0.114737	0.810318	0.847833
	H1306	H	0.009461	0.821256	0.652238
	H1307	H	0.077941	0.796069	0.652536
	H1308	H	0.049310	0.790662	0.598387
	H1309	H	0.111720	0.853363	0.597647
	H1310	H	0.012592	0.774227	0.901704
	H1311	H	0.074972	0.837003	0.902325
	H1312	H	0.012522	0.774218	0.597709
	H1313	H	0.075088	0.836296	0.598729
	H1314	H	0.049252	0.790772	0.902808
	H1315	H	0.111769	0.853230	0.902003
	H1316	H	0.021828	0.823980	1.151689
	H1317	H	0.090182	0.798905	1.150510
	H1318	H	0.034418	0.828800	0.651245
	H1319	H	0.102677	0.805417	0.349914
	H1320	H	0.034456	0.828975	1.151144
	H1321	H	0.102693	0.805261	1.150645
	H1322	H	0.021753	0.823722	0.650341
	H1323	H	0.090209	0.798816	0.350155
	H1324	H	0.037275	0.784651	0.900848
	H1325	H	0.099676	0.847815	0.599313
	H1326	H	0.024498	0.781096	0.599303
	H1327	H	0.086997	0.843150	0.900594
	H1328	H	0.024538	0.780474	0.900684
	H1329	H	0.086967	0.843360	0.599277
	H1330	H	0.037211	0.785449	0.599480
	H1331	H	0.099768	0.847269	0.901098
	Co1332	Co	0.124802	0.875704	0.624325
	Co1333	Co	0.062292	0.813045	0.625034
	Co1334	Co	-0.000187	0.750762	0.875459
	Co1335	Co	0.062335	0.813167	0.875954
	C1336	C	0.008267	0.822423	0.922404
	C1337	C	0.076622	0.797278	0.922665
	C1338	C	0.048062	0.829705	0.578511
	C1339	C	0.116059	0.809954	0.577871
	C1340	C	0.048076	0.829917	0.922638
	C1341	C	0.116034	0.809763	0.922461
	C1342	C	0.008222	0.822266	0.577275
	C1343	C	0.076653	0.796996	0.578179
	C1344	C	0.050379	0.792022	0.672884
	C1345	C	0.112841	0.854723	0.672237
	C1346	C	0.011486	0.772783	0.827149
	C1347	C	0.073959	0.835301	0.827760
	C1348	C	0.011452	0.772869	0.672379
	C1349	C	0.073997	0.835092	0.673023
	C1350	C	0.050370	0.792098	0.828087
	C1351	C	0.112880	0.854515	0.827603
	C1352	C	0.012936	0.821228	1.000287
	C1353	C	0.081384	0.796103	0.500716
	C1354	C	0.043379	0.831028	1.000277
	C1355	C	0.111370	0.809774	0.500156
	C1356	C	0.046047	0.788605	0.750524
	C1357	C	0.108522	0.851151	0.749907
	C1358	C	0.015733	0.776757	0.749795
	C1359	C	0.078239	0.839100	0.750401
	C1360	C	0.020717	0.822910	1.000591
	C1361	C	0.089062	0.798315	0.500811
	C1362	C	0.035622	0.829256	1.000263
	C1363	C	0.103747	0.806434	0.500346
	C1364	C	0.038419	0.785297	0.750285
	C1365	C	0.100891	0.847783	0.750056
	C1366	C	0.023316	0.780559	0.749892
	C1367	C	0.085822	0.842944	0.750068
	C1368	C	0.024534	0.824804	1.084510
	C1369	C	0.092863	0.800259	1.083656
	C1370	C	0.031720	0.827723	0.584304
	C1371	C	0.099986	0.804143	0.416724
	C1372	C	0.031765	0.827753	1.084219
	C1373	C	0.100009	0.804012	1.083659
	C1374	C	0.024491	0.824736	0.583788
	C1375	C	0.092849	0.800261	0.416999
	C1376	C	0.034536	0.783966	0.833880
	C1377	C	0.096975	0.846710	0.666286
	C1378	C	0.027220	0.782000	0.666373
	C1379	C	0.089732	0.844188	0.833899
	C1380	C	0.027240	0.781639	0.833606
	C1381	C	0.089696	0.844229	0.666192
	C1382	C	0.034510	0.784338	0.666623
	C1383	C	0.097035	0.846504	0.834157
	N1384	N	0.001313	0.825109	0.950789
	N1385	N	0.069680	0.799557	0.951710
	N1386	N	0.055012	0.827053	0.549784
	N1387	N	0.123003	0.809274	0.549174
	N1388	N	0.055009	0.827037	0.951679
	N1389	N	0.122982	0.809001	0.950887
	N1390	N	0.001286	0.824908	0.548078
	N1391	N	0.069716	0.799461	0.549544
	N1392	N	0.056647	0.797754	0.701914
	N1393	N	0.119130	0.860406	0.701199
	N1394	N	0.005331	0.766341	0.798314
	N1395	N	0.067802	0.828870	0.798938
	N1396	N	0.005314	0.766359	0.701264
	N1397	N	0.067855	0.828675	0.701887
	N1398	N	0.056659	0.797777	0.799216
	N1399	N	0.119140	0.860339	0.798567
	H1400	H	0.004100	0.904452	0.346453
	H1401	H	0.071985	0.884297	0.347200
	H1402	H	0.040905	0.917825	0.152653
	H1403	H	0.109353	0.893352	0.152099
	H1404	H	0.040954	0.918487	0.347808
	H1405	H	0.109258	0.893405	0.347407
	H1406	H	0.004096	0.904449	0.151670
	H1407	H	0.072073	0.883994	0.152321
	H1408	H	0.043744	0.877787	0.098910
	H1409	H	0.106186	0.940409	0.098447
	H1410	H	0.006903	0.861504	0.401787
	H1411	H	0.069411	0.923847	0.402728
	H1412	H	0.006958	0.861397	0.097188
	H1413	H	0.069517	0.923677	0.098191
	H1414	H	0.043601	0.878205	0.402631
	H1415	H	0.106199	0.940368	0.402059
	H1416	H	0.016156	0.909201	0.349681
	H1417	H	0.084300	0.886246	0.650530
	H1418	H	0.028511	0.916154	0.150100
	H1419	H	0.097011	0.891431	0.150407
	H1420	H	0.028679	0.915620	0.349896
	H1421	H	0.096969	0.891192	0.650320
	H1422	H	0.016042	0.909790	0.150026
	H1423	H	0.084333	0.886560	0.150459
	H1424	H	0.031742	0.871859	0.099868
	H1425	H	0.094242	0.934053	0.401342
	H1426	H	0.019022	0.866869	0.400122
	H1427	H	0.081478	0.929819	0.099394
	H1428	H	0.019006	0.867511	0.098735
	H1429	H	0.081562	0.929382	0.401629
	H1430	H	0.031764	0.871146	0.400735
	H1431	H	0.094225	0.934093	0.099342
	Co1432	Co	0.118969	0.963663	0.124076
	Co1433	Co	0.056459	0.901330	0.124582
	Co1434	Co	-0.006017	0.838795	0.374713
	Co1435	Co	0.056452	0.901571	0.375982
	C1436	C	0.002785	0.904904	0.421516
	C1437	C	0.070717	0.885104	0.422210
	C1438	C	0.042173	0.917388	0.077828
	C1439	C	0.110584	0.892322	0.077489
	C1440	C	0.042188	0.917694	0.423021
	C1441	C	0.110532	0.892328	0.421917
	C1442	C	0.002780	0.904931	0.077278
	C1443	C	0.070752	0.884985	0.077625
	C1444	C	0.044793	0.879309	0.172977
	C1445	C	0.107274	0.941758	0.172665
	C1446	C	0.005837	0.860114	0.327138
	C1447	C	0.068359	0.922567	0.327717
	C1448	C	0.005858	0.860087	0.171908
	C1449	C	0.068395	0.922387	0.172730
	C1450	C	0.044744	0.879545	0.328093
	C1451	C	0.107264	0.941825	0.327438
	C1452	C	0.007416	0.904994	0.499006
	C1453	C	0.075435	0.883919	-0.000163
	C1454	C	0.037497	0.918550	0.500148
	C1455	C	0.105899	0.893454	-0.000123
	C1456	C	0.040497	0.875593	0.250449
	C1457	C	0.102991	0.937951	0.249955
	C1458	C	0.010196	0.863597	0.249639
	C1459	C	0.072725	0.925955	0.250126
	C1460	C	0.015050	0.908436	0.499528
	C1461	C	0.083223	0.885609	-0.000234
	C1462	C	0.029740	0.916422	0.499930
	C1463	C	0.098125	0.891807	-0.000353
	C1464	C	0.032908	0.871831	0.250262
	C1465	C	0.095407	0.934256	0.250189
	C1466	C	0.017823	0.866984	0.249640
	C1467	C	0.080337	0.929375	0.250398
	C1468	C	0.018852	0.910562	0.416209
	C1469	C	0.087018	0.887164	0.583564
	C1470	C	0.025878	0.914613	0.083318
	C1471	C	0.094278	0.890351	0.083689
	C1472	C	0.025959	0.914408	0.416328
	C1473	C	0.094250	0.890118	0.583341
	C1474	C	0.018741	0.910846	0.083458
	C1475	C	0.087053	0.887415	0.083713
	C1476	C	0.029008	0.870755	0.166454
	C1477	C	0.091526	0.932972	0.334424
	C1478	C	0.021741	0.867935	0.333349
	C1479	C	0.084216	0.930659	0.166572
	C1480	C	0.021713	0.868372	0.166054
	C1481	C	0.084247	0.930514	0.334380
	C1482	C	0.029033	0.870318	0.333740
	C1483	C	0.091509	0.933024	0.166383
	N1484	N	-0.004180	0.905544	0.449877
	N1485	N	0.063775	0.887726	0.451374
	N1486	N	0.049128	0.915207	0.049212
	N1487	N	0.117547	0.889669	0.048829
	N1488	N	0.049130	0.915202	0.451947
	N1489	N	0.117489	0.889674	0.450958
	N1490	N	-0.004189	0.905670	0.048256
	N1491	N	0.063803	0.887541	0.048957
	N1492	N	0.050937	0.885790	0.202167
	N1493	N	0.113435	0.948102	0.201349
	N1494	N	-0.000420	0.854266	0.298104
	N1495	N	0.062089	0.916787	0.298811
	N1496	N	-0.000416	0.854257	0.200753
	N1497	N	0.062128	0.916604	0.201383
	N1498	N	0.050896	0.885938	0.299323
	N1499	N	0.113442	0.948131	0.298537
	H1500	H	0.004095	0.904217	0.847219
	H1501	H	0.072007	0.884401	0.847815
	H1502	H	0.040863	0.918146	0.652544
	H1503	H	0.109263	0.893413	0.651982
	H1504	H	0.040916	0.918540	0.848631
	H1505	H	0.109340	0.892997	0.847538
	H1506	H	0.004094	0.904245	0.651670
	H1507	H	0.072020	0.884011	0.651855
	H1508	H	0.043762	0.877783	0.598164
	H1509	H	0.106168	0.940318	0.598259
	H1510	H	0.006949	0.861357	0.902006
	H1511	H	0.069421	0.924149	0.902789
	H1512	H	0.007043	0.861284	0.597922
	H1513	H	0.069475	0.923857	0.598350
	H1514	H	0.043643	0.878191	0.902751
	H1515	H	0.106245	0.940127	0.902107
	H1516	H	0.016138	0.908857	0.849810
	H1517	H	0.084332	0.886234	0.848799
	H1518	H	0.028562	0.916154	0.650208
	H1519	H	0.096934	0.891275	0.348303
	H1520	H	0.028643	0.915420	0.849860
	H1521	H	0.096988	0.891201	0.848918
	H1522	H	0.016053	0.909747	0.649930
	H1523	H	0.084303	0.886115	0.348828
	H1524	H	0.031775	0.871230	0.900960
	H1525	H	0.094239	0.933697	0.599642
	H1526	H	0.018999	0.867442	0.599515
	H1527	H	0.081469	0.929870	0.901497
	H1528	H	0.019039	0.866747	0.900825
	H1529	H	0.081498	0.929544	0.599748
	H1530	H	0.031737	0.871838	0.599822
	H1531	H	0.094198	0.934225	0.901280
	Co1532	Co	0.118962	0.963826	0.624420
	Co1533	Co	0.056497	0.901342	0.625145
	Co1534	Co	-0.006030	0.838882	0.874981
	Co1535	Co	0.056456	0.901558	0.876256
	C1536	C	0.002779	0.904865	0.921640
	C1537	C	0.070734	0.885035	0.922293
	C1538	C	0.042143	0.917459	0.577957
	C1539	C	0.110540	0.892375	0.577213
	C1540	C	0.042187	0.917642	0.922677
	C1541	C	0.110591	0.892303	0.922403
	C1542	C	0.002785	0.904738	0.576628
	C1543	C	0.070726	0.884909	0.577383
	C1544	C	0.044805	0.879375	0.673281
	C1545	C	0.107245	0.941844	0.672783
	C1546	C	0.005868	0.860033	0.827345
	C1547	C	0.068327	0.922815	0.828242
	C1548	C	0.005902	0.859948	0.672284
	C1549	C	0.068364	0.922495	0.672928
	C1550	C	0.044740	0.879606	0.828385
	C1551	C	0.107299	0.941648	0.827582
	C1552	C	0.007407	0.904964	0.999440
	C1553	C	0.075417	0.883765	0.499827
	C1554	C	0.037487	0.918414	1.000010
	C1555	C	0.105838	0.893550	0.499686
	C1556	C	0.040510	0.875651	0.750713
	C1557	C	0.102987	0.937920	0.750221
	C1558	C	0.010212	0.863515	0.750093
	C1559	C	0.072680	0.926116	0.750462
	C1560	C	0.015006	0.908350	0.999692
	C1561	C	0.083182	0.885467	0.499752
	C1562	C	0.029739	0.916280	0.999975
	C1563	C	0.098092	0.891723	0.499637
	C1564	C	0.032921	0.871791	0.750343
	C1565	C	0.095387	0.934279	0.750382
	C1566	C	0.017833	0.866896	0.750154
	C1567	C	0.080301	0.929517	0.750429
	C1568	C	0.018808	0.910407	0.916370
	C1569	C	0.087053	0.887159	0.915891
	C1570	C	0.025895	0.914727	0.583555
	C1571	C	0.094252	0.890189	0.415436
	C1572	C	0.025947	0.914171	0.916528
	C1573	C	0.094272	0.890166	0.915817
	C1574	C	0.018772	0.910932	0.583517
	C1575	C	0.087031	0.887138	0.415719
	C1576	C	0.029032	0.870315	0.834074
	C1577	C	0.091512	0.932910	0.666602
	C1578	C	0.021717	0.868315	0.666490
	C1579	C	0.084190	0.930787	0.834339
	C1580	C	0.021739	0.867956	0.833886
	C1581	C	0.084225	0.930514	0.666630
	C1582	C	0.029010	0.870695	0.666498
	C1583	C	0.091488	0.933149	0.834332
	N1584	N	-0.004184	0.905585	0.950002
	N1585	N	0.063796	0.887646	0.951508
	N1586	N	0.049121	0.915101	0.549579
	N1587	N	0.117484	0.889670	0.548479
	N1588	N	0.049136	0.915350	0.951542
	N1589	N	0.117550	0.889640	0.951239
	N1590	N	-0.004207	0.905438	0.548195
	N1591	N	0.063789	0.887608	0.548804
	N1592	N	0.050963	0.885773	0.702433
	N1593	N	0.113394	0.948204	0.701604
	N1594	N	-0.000380	0.854191	0.798122
	N1595	N	0.062070	0.916892	0.799247
	N1596	N	-0.000362	0.854122	0.700851
	N1597	N	0.062087	0.916771	0.701948
	N1598	N	0.050922	0.885922	0.799498
	N1599	N	0.113453	0.948056	0.798432
	H1600	H	0.129153	0.029011	0.347561
	H1601	H	0.197014	0.009151	0.347800
	H1602	H	0.165935	0.043205	0.153111
	H1603	H	0.234324	0.018609	0.151111
	H1604	H	0.165979	0.043792	0.347986
	H1605	H	0.234267	0.018114	0.347369
	H1606	H	0.129116	0.029295	0.152373
	H1607	H	0.197114	0.008619	0.151834
	H1608	H	0.168775	0.002713	0.099537
	H1609	H	0.231212	0.065557	0.096812
	H1610	H	0.131969	-0.013526	0.402233
	H1611	H	0.194477	0.049014	0.401396
	H1612	H	0.132099	-0.013968	0.097742
	H1613	H	0.194567	0.048640	0.097806
	H1614	H	0.168733	0.003007	0.403255
	H1615	H	0.231217	0.065410	0.400336
	H1616	H	0.141229	0.033818	0.349247
	H1617	H	0.209369	0.010995	0.348734
	H1618	H	0.153618	0.040813	0.150723
	H1619	H	0.221960	0.016266	-0.151402
	H1620	H	0.153664	0.040341	0.348632
	H1621	H	0.221982	0.016248	0.348337
	H1622	H	0.141158	0.034269	0.149893
	H1623	H	0.209363	0.011274	-0.151295
	H1624	H	0.156804	-0.003564	0.100149
	H1625	H	0.219247	0.058757	0.098160
	H1626	H	0.144061	-0.008408	0.401403
	H1627	H	0.206549	0.054806	0.400289
	H1628	H	0.144102	-0.007926	0.099847
	H1629	H	0.206589	0.054493	0.098679
	H1630	H	0.156792	-0.003913	0.401641
	H1631	H	0.219315	0.059095	0.399644
	Co1632	Co	0.243981	0.088918	0.124029
	Co1633	Co	0.181557	0.026249	0.124472
	Co1634	Co	0.118970	-0.036212	0.375286
	Co1635	Co	0.181481	0.026564	0.376073
	C1636	C	0.127806	0.029514	0.422493
	C1637	C	0.195728	0.009807	0.422231
	C1638	C	0.167221	0.042362	0.078092
	C1639	C	0.235594	0.017482	0.076710
	C1640	C	0.167200	0.042582	0.422419
	C1641	C	0.235549	0.017307	0.421874
	C1642	C	0.127835	0.029637	0.077277
	C1643	C	0.195796	0.009680	0.077559
	C1644	C	0.169816	0.004264	0.173750
	C1645	C	0.232313	0.066909	0.171467
	C1646	C	0.130880	-0.014995	0.327521
	C1647	C	0.193396	0.047641	0.327072
	C1648	C	0.130941	-0.015209	0.172288
	C1649	C	0.193478	0.047332	0.172128
	C1650	C	0.169801	0.004422	0.328650
	C1651	C	0.232344	0.066803	0.326228
	C1652	C	0.132442	0.029752	0.500253
	C1653	C	0.200516	0.008713	-0.000021
	C1654	C	0.162501	0.043512	0.499911
	C1655	C	0.230890	0.018518	-0.000877
	C1656	C	0.165554	0.000371	0.251526
	C1657	C	0.228051	0.062924	0.248958
	C1658	C	0.135225	-0.011567	0.250233
	C1659	C	0.197767	0.051027	0.249748
	C1660	C	0.140074	0.033182	0.499914
	C1661	C	0.208276	0.010445	0.000232
	C1662	C	0.154787	0.041281	0.499358
	C1663	C	0.223157	0.016770	-0.000441
	C1664	C	0.157975	-0.003434	0.251293
	C1665	C	0.220465	0.059191	0.249169
	C1666	C	0.142885	-0.008224	0.250625
	C1667	C	0.205383	0.054413	0.249692
	C1668	C	0.143879	0.035289	0.416171
	C1669	C	0.212059	0.012119	0.415679
	C1670	C	0.150985	0.039373	0.083837
	C1671	C	0.219287	0.015257	-0.084201
	C1672	C	0.151001	0.039144	0.415807
	C1673	C	0.219276	0.015132	0.415430
	C1674	C	0.143867	0.035506	0.083387
	C1675	C	0.212067	0.012193	-0.084038
	C1676	C	0.154114	-0.004667	0.167178
	C1677	C	0.216581	0.057872	0.165464
	C1678	C	0.146779	-0.007204	0.334463
	C1679	C	0.209288	0.055677	0.333482
	C1680	C	0.146818	-0.006980	0.166955
	C1681	C	0.209291	0.055536	0.165701
	C1682	C	0.154078	-0.004870	0.334708
	C1683	C	0.216592	0.058034	0.333087
	N1684	N	0.120836	0.030138	0.450885
	N1685	N	0.188791	0.012554	0.451299
	N1686	N	0.174180	0.039884	0.049039
	N1687	N	0.242541	0.014766	0.047780
	N1688	N	0.174147	0.040175	0.451670
	N1689	N	0.242497	0.014627	0.450913
	N1690	N	0.120882	0.030298	0.048586
	N1691	N	0.188876	0.012293	0.048727
	N1692	N	0.175968	0.010750	0.202424
	N1693	N	0.238445	0.073340	0.200413
	N1694	N	0.124634	-0.020894	0.298405
	N1695	N	0.187148	0.041722	0.298297
	N1696	N	0.124648	-0.021009	0.201121
	N1697	N	0.187193	0.041592	0.200991
	N1698	N	0.175942	0.010850	0.299426
	N1699	N	0.238477	0.073277	0.297194
	H1700	H	0.129150	0.029213	0.847501
	H1701	H	0.197127	0.009240	0.847657
	H1702	H	0.165894	0.042890	0.652150
	H1703	H	0.234262	0.018435	0.651786
	H1704	H	0.165941	0.043221	0.847917
	H1705	H	0.234319	0.017936	0.846376
	H1706	H	0.129087	0.029227	0.652586
	H1707	H	0.196999	0.008779	0.652159
	H1708	H	0.168818	0.002599	0.598247
	H1709	H	0.231097	0.065674	0.597918
	H1710	H	0.132042	-0.014085	0.902196
	H1711	H	0.194515	0.048669	0.902971
	H1712	H	0.131968	-0.013745	0.597452
	H1713	H	0.194487	0.048855	0.597770
	H1714	H	0.168701	0.002989	0.902429
	H1715	H	0.231230	0.065191	0.901704
	H1716	H	0.141195	0.034432	0.849402
	H1717	H	0.209452	0.010984	1.151195
	H1718	H	0.153563	0.041268	0.649596
	H1719	H	0.221992	0.016278	0.650597
	H1720	H	0.153662	0.040980	0.850216
	H1721	H	0.222068	0.015960	1.150666
	H1722	H	0.141120	0.034715	0.649982
	H1723	H	0.209377	0.011053	0.651041
	H1724	H	0.156744	-0.003703	0.900611
	H1725	H	0.219234	0.058927	0.900799
	H1726	H	0.144045	-0.007728	0.599421
	H1727	H	0.206497	0.054648	0.599339
	H1728	H	0.144043	-0.008178	0.900453
	H1729	H	0.206517	0.054591	0.900934
	H1730	H	0.156735	-0.003453	0.599683
	H1731	H	0.219228	0.059080	0.599155
	Co1732	Co	0.243936	0.088972	0.623766
	Co1733	Co	0.181477	0.026221	0.625061
	Co1734	Co	0.119008	-0.036357	0.875608
	Co1735	Co	0.181481	0.026110	0.875888
	C1736	C	0.127838	0.029545	0.921866
	C1737	C	0.195809	0.009998	0.922182
	C1738	C	0.167165	0.042287	0.577885
	C1739	C	0.235558	0.017451	0.577243
	C1740	C	0.167211	0.042387	0.922809
	C1741	C	0.235585	0.017186	0.921207
	C1742	C	0.127795	0.029597	0.578085
	C1743	C	0.195737	0.009796	0.577450
	C1744	C	0.169829	0.004153	0.673121
	C1745	C	0.232197	0.067086	0.672083
	C1746	C	0.130926	-0.015290	0.827758
	C1747	C	0.193375	0.047430	0.828116
	C1748	C	0.130890	-0.015110	0.672330
	C1749	C	0.193358	0.047468	0.672605
	C1750	C	0.169793	0.004256	0.827954
	C1751	C	0.232262	0.066885	0.827032
	C1752	C	0.132483	0.029794	0.999531
	C1753	C	0.200443	0.008610	0.499872
	C1754	C	0.162520	0.043453	1.000481
	C1755	C	0.230870	0.018546	0.499765
	C1756	C	0.165538	0.000383	0.750470
	C1757	C	0.227969	0.063102	0.749862
	C1758	C	0.135243	-0.011744	0.750037
	C1759	C	0.197701	0.050962	0.750335
	C1760	C	0.140108	0.033211	0.999619
	C1761	C	0.208227	0.010359	0.499905
	C1762	C	0.154793	0.041307	1.000458
	C1763	C	0.223111	0.016756	0.499781
	C1764	C	0.157946	-0.003283	0.750351
	C1765	C	0.220383	0.059324	0.750081
	C1766	C	0.142856	-0.008287	0.750197
	C1767	C	0.205324	0.054428	0.750239
	C1768	C	0.143869	0.035620	0.916083
	C1769	C	0.212133	0.012013	1.083998
	C1770	C	0.150935	0.039615	0.582881
	C1771	C	0.219285	0.015060	0.583680
	C1772	C	0.150986	0.039492	0.916788
	C1773	C	0.219347	0.015025	1.083595
	C1774	C	0.143824	0.035721	0.583311
	C1775	C	0.212065	0.012040	0.583840
	C1776	C	0.154039	-0.004659	0.833819
	C1777	C	0.216497	0.058026	0.833879
	C1778	C	0.146743	-0.006904	0.666551
	C1779	C	0.209207	0.055678	0.666328
	C1780	C	0.146756	-0.007185	0.833702
	C1781	C	0.209215	0.055586	0.833912
	C1782	C	0.154035	-0.004485	0.666635
	C1783	C	0.216492	0.058100	0.666140
	N1784	N	0.120884	0.030291	0.950292
	N1785	N	0.188892	0.012502	0.951085
	N1786	N	0.174122	0.039913	0.549298
	N1787	N	0.242503	0.014659	0.548266
	N1788	N	0.174176	0.039931	0.951475
	N1789	N	0.242537	0.014528	0.950254
	N1790	N	0.120849	0.030182	0.549229
	N1791	N	0.188801	0.012480	0.548801
	N1792	N	0.175980	0.010541	0.702032
	N1793	N	0.238358	0.073467	0.700864
	N1794	N	0.124656	-0.021052	0.798713
	N1795	N	0.187125	0.041509	0.799068
	N1796	N	0.124627	-0.020907	0.701332
	N1797	N	0.187096	0.041586	0.702015
	N1798	N	0.175965	0.010539	0.799354
	N1799	N	0.238413	0.073292	0.797971
	H1800	H	0.135761	0.210519	0.350849
	H1801	H	0.191614	0.092173	0.347540
	H1802	H	0.163556	0.138332	0.150877
	H1803	H	0.228458	0.105802	0.151569
	H1804	H	0.163546	0.138395	0.349370
	H1805	H	0.228341	0.105675	0.347030
	H1806	H	0.135826	0.210808	0.150163
	H1807	H	0.191605	0.091822	0.152407
	H1808	H	0.161669	0.089623	0.099477
	H1809	H	0.224169	0.152034	0.098688
	H1810	H	0.125644	0.069039	0.400878
	H1811	H	0.188149	0.131865	0.402218
	H1812	H	0.125584	0.069450	0.097521
	H1813	H	0.188083	0.132064	0.098649
	H1814	H	0.161718	0.089355	0.401166
	H1815	H	0.224186	0.152192	0.400690
	H1816	H	0.144753	0.187069	0.517633
	H1817	H	0.203593	0.097040	0.349349
	H1818	H	0.154665	0.162320	0.045012
	H1819	H	0.216113	0.103499	0.150126
	H1820	H	0.154387	0.161895	0.517641
	H1821	H	0.216099	0.103382	0.349516
	H1822	H	0.145018	0.187580	0.045299
	H1823	H	0.203652	0.096852	0.150275
	H1824	H	0.149594	0.084973	0.102471
	H1825	H	0.212107	0.147927	0.101657
	H1826	H	0.137008	0.079025	0.397604
	H1827	H	0.199545	0.141638	0.398267
	H1828	H	0.137021	0.079154	0.102125
	H1829	H	0.199487	0.141998	0.101710
	H1830	H	0.149582	0.085113	0.398098
	H1831	H	0.212154	0.147373	0.398266
	Co1832	Co	0.238438	0.168513	0.123932
	Co1833	Co	0.175977	0.106091	0.124751
	Co1834	Co	0.113464	0.043256	0.374330
	Co1835	Co	0.175941	0.106110	0.375257
	C1836	C	0.134855	0.212988	0.423679
	C1837	C	0.190315	0.092426	0.422318
	C1838	C	0.164440	0.135775	0.076749
	C1839	C	0.229683	0.105048	0.076767
	C1840	C	0.164469	0.135833	0.423026
	C1841	C	0.229634	0.104919	0.421853
	C1842	C	0.134869	0.213106	0.076794
	C1843	C	0.190317	0.092160	0.077748
	C1844	C	0.162905	0.090140	0.172837
	C1845	C	0.225423	0.152514	0.172493
	C1846	C	0.124635	0.067456	0.327046
	C1847	C	0.187127	0.130313	0.327571
	C1848	C	0.124623	0.067595	0.171907
	C1849	C	0.187094	0.130415	0.172538
	C1850	C	0.162925	0.090056	0.327261
	C1851	C	0.225414	0.152701	0.326965
	C1852	C	0.138186	0.203914	0.500265
	C1853	C	0.194941	0.092334	-0.000065
	C1854	C	0.160980	0.144579	0.500188
	C1855	C	0.225007	0.105989	-0.000724
	C1856	C	0.158408	0.087972	0.250115
	C1857	C	0.220933	0.150478	0.249759
	C1858	C	0.128648	0.072643	0.249740
	C1859	C	0.191148	0.135404	0.249976
	C1860	C	0.143928	0.188774	0.500389
	C1861	C	0.202592	0.095727	-0.000184
	C1862	C	0.155160	0.159524	0.500372
	C1863	C	0.217270	0.103850	-0.000586
	C1864	C	0.150763	0.085078	0.250041
	C1865	C	0.213274	0.147670	0.250014
	C1866	C	0.135958	0.078256	0.249795
	C1867	C	0.198474	0.140973	0.249874
	C1868	C	0.146826	0.181402	0.510115
	C1869	C	0.206285	0.098298	0.416196
	C1870	C	0.152406	0.167370	0.025460
	C1871	C	0.213468	0.101920	0.083270
	C1872	C	0.152300	0.167199	0.510026
	C1873	C	0.213403	0.102128	0.416182
	C1874	C	0.146964	0.181687	0.025641
	C1875	C	0.206348	0.098141	0.083497
	C1876	C	0.146909	0.083679	0.167643
	C1877	C	0.209406	0.146442	0.167236
	C1878	C	0.139730	0.080326	0.332306
	C1879	C	0.202252	0.142931	0.332752
	C1880	C	0.139735	0.080330	0.167351
	C1881	C	0.202220	0.143168	0.167259
	C1882	C	0.146916	0.083684	0.332329
	C1883	C	0.209438	0.146216	0.332796
	N1884	N	0.129923	0.226390	0.452177
	N1885	N	0.183354	0.093008	0.450691
	N1886	N	0.169524	0.122822	0.047505
	N1887	N	0.236643	0.102542	0.047717
	N1888	N	0.169507	0.122794	0.452335
	N1889	N	0.236592	0.102504	0.450461
	N1890	N	0.129942	0.226392	0.047439
	N1891	N	0.183345	0.092921	0.049113
	N1892	N	0.169550	0.093454	0.201421
	N1893	N	0.232053	0.155874	0.201041
	N1894	N	0.118903	0.059371	0.297498
	N1895	N	0.181352	0.122321	0.298410
	N1896	N	0.118906	0.059417	0.201173
	N1897	N	0.181339	0.122349	0.202041
	N1898	N	0.169563	0.093381	0.298302
	N1899	N	0.232055	0.155940	0.298168
	H1900	H	0.135633	0.210281	0.850359
	H1901	H	0.191599	0.091707	0.847890
	H1902	H	0.163429	0.138032	0.650846
	H1903	H	0.228417	0.105928	0.651613
	H1904	H	0.163309	0.137542	0.848385
	H1905	H	0.228400	0.105676	0.847085
	H1906	H	0.135661	0.210589	0.649334
	H1907	H	0.191602	0.091776	0.652637
	H1908	H	0.161675	0.088890	0.598059
	H1909	H	0.224110	0.151923	0.598131
	H1910	H	0.125535	0.069277	0.901359
	H1911	H	0.188079	0.131687	0.902391
	H1912	H	0.125413	0.069528	0.597095
	H1913	H	0.188068	0.131907	0.598303
	H1914	H	0.161655	0.089237	0.900519
	H1915	H	0.224199	0.151926	0.900472
	H1916	H	0.144368	0.185873	0.955953
	H1917	H	0.203646	0.096772	0.849405
	H1918	H	0.154301	0.161268	0.483040
	H1919	H	0.216106	0.103469	0.650283
	H1920	H	0.153949	0.160604	0.954735
	H1921	H	0.216118	0.103438	0.849235
	H1922	H	0.144637	0.186379	0.482825
	H1923	H	0.203644	0.096962	0.650379
	H1924	H	0.149621	0.084813	0.601110
	H1925	H	0.212046	0.147343	0.601343
	H1926	H	0.136929	0.079436	0.897099
	H1927	H	0.199500	0.141910	0.898951
	H1928	H	0.136965	0.079251	0.600467
	H1929	H	0.199480	0.141431	0.601872
	H1930	H	0.149498	0.085060	0.897517
	H1931	H	0.212079	0.147919	0.898173
	Co1932	Co	0.238406	0.168385	0.623677
	Co1933	Co	0.175921	0.105867	0.624929
	Co1934	Co	0.113449	0.043259	0.874486
	Co1935	Co	0.175907	0.105772	0.875067
	C1936	C	0.134774	0.212818	0.923440
	C1937	C	0.190298	0.092106	0.922473
	C1938	C	0.164396	0.135630	0.577312
	C1939	C	0.229657	0.105145	0.576947
	C1940	C	0.164298	0.135401	0.922346
	C1941	C	0.229645	0.104967	0.921661
	C1942	C	0.134795	0.212989	0.576312
	C1943	C	0.190293	0.092188	0.577704
	C1944	C	0.162921	0.089667	0.672362
	C1945	C	0.225367	0.152476	0.672023
	C1946	C	0.124550	0.067677	0.826474
	C1947	C	0.187072	0.130045	0.827902
	C1948	C	0.124489	0.067780	0.671803
	C1949	C	0.187061	0.130188	0.673056
	C1950	C	0.162873	0.089819	0.826566
	C1951	C	0.225401	0.152520	0.826339
	C1952	C	0.138179	0.203892	1.000236
	C1953	C	0.194938	0.092552	0.500070
	C1954	C	0.160897	0.144392	0.999549
	C1955	C	0.224971	0.106115	0.499442
	C1956	C	0.158391	0.087716	0.749211
	C1957	C	0.220901	0.150377	0.749419
	C1958	C	0.128530	0.072834	0.749010
	C1959	C	0.191088	0.135235	0.750682
	C1960	C	0.143905	0.188750	1.000397
	C1961	C	0.202542	0.095987	0.499984
	C1962	C	0.155099	0.159342	0.999978
	C1963	C	0.217228	0.104015	0.499807
	C1964	C	0.150706	0.084975	0.749171
	C1965	C	0.213237	0.147671	0.749686
	C1966	C	0.135846	0.078444	0.748837
	C1967	C	0.198389	0.140936	0.750641
	C1968	C	0.146595	0.180762	0.975170
	C1969	C	0.206351	0.098049	0.916027
	C1970	C	0.152237	0.166815	0.490595
	C1971	C	0.213434	0.102013	0.583681
	C1972	C	0.152039	0.166485	0.974665
	C1973	C	0.213457	0.101949	0.915875
	C1974	C	0.146775	0.181034	0.490692
	C1975	C	0.206318	0.098192	0.583521
	C1976	C	0.146868	0.083564	0.666560
	C1977	C	0.209373	0.146171	0.667181
	C1978	C	0.139641	0.080571	0.831512
	C1979	C	0.202178	0.143136	0.833173
	C1980	C	0.139664	0.080422	0.666341
	C1981	C	0.202183	0.142816	0.667716
	C1982	C	0.146832	0.083736	0.831756
	C1983	C	0.209371	0.146474	0.832716
	N1984	N	0.129869	0.226228	0.952415
	N1985	N	0.183334	0.092815	0.950905
	N1986	N	0.169460	0.122633	0.548141
	N1987	N	0.236612	0.102668	0.547983
	N1988	N	0.169442	0.122588	0.951596
	N1989	N	0.236615	0.102586	0.950102
	N1990	N	0.129878	0.226376	0.546864
	N1991	N	0.183336	0.092879	0.548901
	N1992	N	0.169558	0.093017	0.701324
	N1993	N	0.232008	0.155806	0.700464
	N1994	N	0.118803	0.059564	0.797578
	N1995	N	0.181318	0.122026	0.798396
	N1996	N	0.118758	0.059642	0.700714
	N1997	N	0.181319	0.122120	0.701801
	N1998	N	0.169527	0.093063	0.798064
	N1999	N	0.232032	0.155842	0.797392
	H2000	H	0.147303	0.412800	0.350185
	H2001	H	0.198201	0.273011	0.351090
	H2002	H	0.175021	0.340353	0.149399
	H2003	H	0.226013	0.200711	0.150059
	H2004	H	0.175088	0.340346	0.351734
	H2005	H	0.226173	0.201166	0.348001
	H2006	H	0.147542	0.413589	0.152350
	H2007	H	0.198253	0.273365	0.149756
	H2008	H	0.172765	0.288197	0.103338
	H2009	H	0.235259	0.350905	0.103289
	H2010	H	0.138146	0.262222	0.397471
	H2011	H	0.200461	0.325530	0.398632
	H2012	H	0.138089	0.262330	0.102159
	H2013	H	0.200578	0.325253	0.103174
	H2014	H	0.172792	0.288664	0.396986
	H2015	H	0.235241	0.351275	0.398333
	H2016	H	0.156153	0.388413	0.505169
	H2017	H	0.206525	0.247617	0.508695
	H2018	H	0.165805	0.363400	-0.054314
	H2019	H	0.216676	0.223692	-0.017617
	H2020	H	0.165796	0.363364	0.505417
	H2021	H	0.216223	0.222593	0.508525
	H2022	H	0.156186	0.388646	-0.053907
	H2023	H	0.207047	0.248886	-0.017491
	H2024	H	0.160946	0.284543	0.332135
	H2025	H	0.224328	0.340386	0.291078
	H2026	H	0.150032	0.265816	0.168601
	H2027	H	0.211433	0.336368	0.212008
	H2028	H	0.148584	0.275935	0.332325
	H2029	H	0.212000	0.331803	0.290424
	H2030	H	0.162334	0.274588	0.167850
	H2031	H	0.223743	0.344912	0.212160
	Co2032	Co	0.249168	0.369457	0.125567
	Co2033	Co	0.186701	0.306902	0.124971
	Co2034	Co	0.124183	0.244269	0.375005
	Co2035	Co	0.186659	0.306804	0.375411
	C2036	C	0.146427	0.415212	0.424119
	C2037	C	0.197311	0.275485	0.424142
	C2038	C	0.175976	0.338008	0.076441
	C2039	C	0.226907	0.198267	0.076639
	C2040	C	0.176002	0.337954	0.424546
	C2041	C	0.226980	0.198568	0.422275
	C2042	C	0.146563	0.415593	0.078477
	C2043	C	0.197379	0.275822	0.076652
	C2044	C	0.173990	0.289350	0.174399
	C2045	C	0.236442	0.352079	0.175526
	C2046	C	0.136963	0.261341	0.325661
	C2047	C	0.199336	0.324377	0.326359
	C2048	C	0.136967	0.261392	0.174031
	C2049	C	0.199383	0.324250	0.175058
	C2050	C	0.173968	0.289590	0.325519
	C2051	C	0.236447	0.352194	0.326583
	C2052	C	0.149920	0.406424	0.501320
	C2053	C	0.200727	0.266647	0.000271
	C2054	C	0.172684	0.347102	0.501052
	C2055	C	0.223401	0.207091	-0.000430
	C2056	C	0.169832	0.285650	0.249928
	C2057	C	0.232257	0.348454	0.251122
	C2058	C	0.141140	0.265008	0.250037
	C2059	C	0.203541	0.328112	0.250864
	C2060	C	0.155724	0.391518	0.501554
	C2061	C	0.206419	0.251449	-0.000079
	C2062	C	0.166963	0.362242	0.501458
	C2063	C	0.217616	0.222075	-0.000278
	C2064	C	0.162562	0.280275	0.249969
	C2065	C	0.224989	0.343241	0.251422
	C2066	C	0.148410	0.270327	0.250402
	C2067	C	0.210775	0.333511	0.251093
	C2068	C	0.158403	0.383454	0.503861
	C2069	C	0.208910	0.242917	0.505116
	C2070	C	0.163879	0.369311	-0.030072
	C2071	C	0.214654	0.229362	-0.009661
	C2072	C	0.163881	0.369248	0.503563
	C2073	C	0.214392	0.228751	0.504934
	C2074	C	0.158423	0.383497	-0.029680
	C2075	C	0.209205	0.243653	-0.009814
	C2076	C	0.158561	0.280509	0.296428
	C2077	C	0.221518	0.339466	0.273477
	C2078	C	0.152424	0.270052	0.204305
	C2079	C	0.214241	0.337255	0.229315
	C2080	C	0.151635	0.275556	0.296474
	C2081	C	0.214561	0.334712	0.273289
	C2082	C	0.159347	0.274956	0.203777
	C2083	C	0.221196	0.342026	0.229189
	N2084	N	0.141342	0.428157	0.453497
	N2085	N	0.192395	0.288858	0.452657
	N2086	N	0.180933	0.324700	0.047719
	N2087	N	0.231966	0.185307	0.047129
	N2088	N	0.180932	0.324601	0.453267
	N2089	N	0.232013	0.185476	0.451556
	N2090	N	0.141430	0.428427	0.049163
	N2091	N	0.192480	0.289190	0.047407
	N2092	N	0.180182	0.295105	0.202724
	N2093	N	0.242649	0.357755	0.203829
	N2094	N	0.130725	0.255858	0.296742
	N2095	N	0.193193	0.318566	0.297558
	N2096	N	0.130735	0.255882	0.202571
	N2097	N	0.193211	0.318513	0.203483
	N2098	N	0.180166	0.295226	0.296620
	N2099	N	0.242660	0.357739	0.297973
	H2100	H	0.147089	0.412210	0.851172
	H2101	H	0.198195	0.273239	0.850668
	H2102	H	0.175233	0.340664	0.649978
	H2103	H	0.225879	0.200273	0.650676
	H2104	H	0.175273	0.340802	0.850567
	H2105	H	0.225903	0.200570	0.848641
	H2106	H	0.147392	0.413043	0.652473
	H2107	H	0.198166	0.272986	0.649324
	H2108	H	0.172829	0.288297	0.602794
	H2109	H	0.235401	0.350653	0.602992
	H2110	H	0.138021	0.262837	0.897899
	H2111	H	0.200560	0.325695	0.896443
	H2112	H	0.138257	0.262357	0.602634
	H2113	H	0.200624	0.324932	0.601954
	H2114	H	0.172862	0.288287	0.898616
	H2115	H	0.235177	0.351374	0.898346
	H2116	H	0.156852	0.390371	1.055557
	H2117	H	0.207364	0.249936	1.016807
	H2118	H	0.166580	0.365256	0.497604
	H2119	H	0.217440	0.225570	0.490992
	H2120	H	0.166520	0.365212	1.054422
	H2121	H	0.216941	0.224535	1.016183
	H2122	H	0.156905	0.390386	0.497998
	H2123	H	0.207822	0.250685	0.491999
	H2124	H	0.161777	0.278502	0.759411
	H2125	H	0.223753	0.344376	0.740411
	H2126	H	0.149127	0.272734	0.742677
	H2127	H	0.211983	0.332512	0.759079
	H2128	H	0.149397	0.269971	0.758863
	H2129	H	0.211448	0.335735	0.740072
	H2130	H	0.161500	0.281223	0.742285
	H2131	H	0.224301	0.341176	0.759777
	Co2132	Co	0.249207	0.369417	0.625808
	Co2133	Co	0.186738	0.306820	0.624634
	Co2134	Co	0.124230	0.244277	0.875239
	Co2135	Co	0.186739	0.307006	0.875257
	C2136	C	0.146336	0.414910	0.924734
	C2137	C	0.197353	0.275728	0.923682
	C2138	C	0.176088	0.338066	0.577190
	C2139	C	0.226846	0.198110	0.576716
	C2140	C	0.176099	0.338229	0.923614
	C2141	C	0.226845	0.198232	0.922199
	C2142	C	0.146477	0.415338	0.578584
	C2143	C	0.197298	0.275506	0.576523
	C2144	C	0.174041	0.289430	0.674760
	C2145	C	0.236523	0.352011	0.675029
	C2146	C	0.136891	0.261701	0.825952
	C2147	C	0.199394	0.324528	0.824807
	C2148	C	0.136997	0.261477	0.674310
	C2149	C	0.199427	0.324185	0.673826
	C2150	C	0.174043	0.289443	0.826224
	C2151	C	0.236425	0.352330	0.826462
	C2152	C	0.149919	0.406420	1.001548
	C2153	C	0.200666	0.266458	0.500581
	C2154	C	0.172683	0.347135	0.999918
	C2155	C	0.223450	0.207145	0.499626
	C2156	C	0.169844	0.285775	0.750560
	C2157	C	0.232267	0.348569	0.750477
	C2158	C	0.141114	0.265420	0.750301
	C2159	C	0.203564	0.328199	0.749264
	C2160	C	0.155713	0.391442	1.001085
	C2161	C	0.206383	0.251300	0.500585
	C2162	C	0.166951	0.362287	1.000204
	C2163	C	0.217640	0.222068	0.499912
	C2164	C	0.162593	0.280403	0.750896
	C2165	C	0.224995	0.343338	0.749890
	C2166	C	0.148371	0.270774	0.750538
	C2167	C	0.210806	0.333541	0.749596
	C2168	C	0.158814	0.384511	1.031404
	C2169	C	0.209364	0.244148	1.009137
	C2170	C	0.164310	0.370294	0.499462
	C2171	C	0.215085	0.230366	0.495117
	C2172	C	0.164264	0.370288	1.031061
	C2173	C	0.214822	0.229867	1.009014
	C2174	C	0.158827	0.384514	0.499496
	C2175	C	0.209613	0.244552	0.495604
	C2176	C	0.159035	0.277209	0.755570
	C2177	C	0.221216	0.341775	0.744526
	C2178	C	0.151921	0.273981	0.745980
	C2179	C	0.214587	0.335102	0.755001
	C2180	C	0.152072	0.272476	0.755219
	C2181	C	0.214272	0.336928	0.744350
	C2182	C	0.158882	0.278740	0.746101
	C2183	C	0.221529	0.339992	0.755197
	N2184	N	0.141305	0.428004	0.953947
	N2185	N	0.192473	0.289144	0.952447
	N2186	N	0.180979	0.324674	0.547948
	N2187	N	0.231940	0.185208	0.546916
	N2188	N	0.181007	0.324845	0.952610
	N2189	N	0.231927	0.185298	0.951402
	N2190	N	0.141391	0.428232	0.549394
	N2191	N	0.192390	0.288855	0.547357
	N2192	N	0.180226	0.295119	0.703158
	N2193	N	0.242728	0.357555	0.703967
	N2194	N	0.130712	0.256006	0.796635
	N2195	N	0.193204	0.318768	0.796434
	N2196	N	0.130769	0.255870	0.702676
	N2197	N	0.193235	0.318560	0.702505
	N2198	N	0.180219	0.295157	0.797545
	N2199	N	0.242671	0.357742	0.798391
	H2200	H	0.144887	0.507990	0.347911
	H2201	H	0.209880	0.475528	0.350431
	H2202	H	0.181744	0.521948	0.152793
	H2203	H	0.237613	0.402966	0.149671
	H2204	H	0.181747	0.521804	0.347637
	H2205	H	0.237614	0.403114	0.352238
	H2206	H	0.144957	0.507806	0.153451
	H2207	H	0.209711	0.474886	0.150413
	H2208	H	0.185216	0.481446	0.099064
	H2209	H	0.247663	0.544175	0.098521
	H2210	H	0.149128	0.461386	0.403428
	H2211	H	0.211514	0.524337	0.400866
	H2212	H	0.149051	0.462013	0.100455
	H2213	H	0.211489	0.524532	0.098813
	H2214	H	0.185203	0.481650	0.403217
	H2215	H	0.247672	0.544331	0.402051
	H2216	H	0.157205	0.510284	0.650534
	H2217	H	0.219229	0.452654	0.392900
	H2218	H	0.169688	0.516839	0.151726
	H2219	H	0.228734	0.426861	0.022623
	H2220	H	0.169752	0.516666	0.650093
	H2221	H	0.228876	0.427504	0.393147
	H2222	H	0.157193	0.510261	0.151483
	H2223	H	0.219064	0.451944	0.022322
	H2224	H	0.173785	0.471921	0.104084
	H2225	H	0.236252	0.534559	0.101858
	H2226	H	0.161220	0.465971	0.399509
	H2227	H	0.223666	0.528242	0.397603
	H2228	H	0.161165	0.466056	0.104084
	H2229	H	0.223635	0.528854	0.102101
	H2230	H	0.173818	0.471763	0.399302
	H2231	H	0.236261	0.534199	0.398378
	Co2232	Co	0.259831	0.569970	0.124534
	Co2233	Co	0.197338	0.507496	0.125174
	Co2234	Co	0.134871	0.444904	0.376760
	Co2235	Co	0.197432	0.507424	0.375572
	C2236	C	0.143608	0.508887	0.423098
	C2237	C	0.208959	0.477808	0.423931
	C2238	C	0.183055	0.521385	0.078565
	C2239	C	0.238551	0.400598	0.076880
	C2240	C	0.183044	0.521321	0.422332
	C2241	C	0.238538	0.400651	0.425110
	C2242	C	0.143631	0.508770	0.078547
	C2243	C	0.208870	0.477598	0.077235
	C2244	C	0.186213	0.483244	0.173792
	C2245	C	0.248638	0.545928	0.172845
	C2246	C	0.147891	0.460987	0.329319
	C2247	C	0.210358	0.523690	0.326856
	C2248	C	0.147841	0.461251	0.174592
	C2249	C	0.210328	0.523791	0.172682
	C2250	C	0.186230	0.483274	0.328775
	C2251	C	0.248675	0.545972	0.327493
	C2252	C	0.148310	0.507772	0.500788
	C2253	C	0.212432	0.469059	0.000253
	C2254	C	0.178380	0.521230	0.499890
	C2255	C	0.235239	0.409779	0.000752
	C2256	C	0.182196	0.478228	0.251306
	C2257	C	0.244637	0.540929	0.250510
	C2258	C	0.152357	0.463287	0.251917
	C2259	C	0.214826	0.525820	0.249757
	C2260	C	0.156052	0.509802	0.500706
	C2261	C	0.218240	0.454126	0.000251
	C2262	C	0.170757	0.517818	0.500103
	C2263	C	0.229511	0.424897	0.000641
	C2264	C	0.174851	0.472680	0.251584
	C2265	C	0.237329	0.535235	0.250345
	C2266	C	0.160011	0.466071	0.251907
	C2267	C	0.222494	0.528638	0.249873
	C2268	C	0.159886	0.511673	0.583991
	C2269	C	0.221227	0.446903	0.440740
	C2270	C	0.167019	0.515399	0.084934
	C2271	C	0.226600	0.432365	0.012960
	C2272	C	0.167014	0.515488	0.583731
	C2273	C	0.226697	0.432707	0.440924
	C2274	C	0.159878	0.511563	0.084763
	C2275	C	0.221134	0.446585	0.012644
	C2276	C	0.171057	0.470660	0.169271
	C2277	C	0.233550	0.533324	0.167508
	C2278	C	0.163892	0.467344	0.334174
	C2279	C	0.226365	0.529793	0.332513
	C2280	C	0.163862	0.467431	0.169552
	C2281	C	0.226362	0.530095	0.167165
	C2282	C	0.171086	0.470571	0.334079
	C2283	C	0.233563	0.532989	0.332784
	N2284	N	0.136641	0.511544	0.452035
	N2285	N	0.203871	0.490762	0.453130
	N2286	N	0.190007	0.520690	0.049746
	N2287	N	0.243482	0.387296	0.048097
	N2288	N	0.189995	0.520526	0.451054
	N2289	N	0.243468	0.387303	0.453725
	N2290	N	0.136698	0.511345	0.049747
	N2291	N	0.203808	0.490653	0.048238
	N2292	N	0.191989	0.491238	0.202735
	N2293	N	0.254426	0.553901	0.201700
	N2294	N	0.141257	0.457654	0.300519
	N2295	N	0.203727	0.520322	0.298551
	N2296	N	0.141210	0.457850	0.203261
	N2297	N	0.203708	0.520269	0.201444
	N2298	N	0.192010	0.491256	0.299042
	N2299	N	0.254438	0.553965	0.298246
	H2300	H	0.144944	0.508040	0.849060
	H2301	H	0.210066	0.475964	0.849456
	H2302	H	0.181693	0.521815	0.652400
	H2303	H	0.237631	0.403061	0.650865
	H2304	H	0.181719	0.521705	0.848536
	H2305	H	0.237795	0.403365	0.851975
	H2306	H	0.144936	0.508100	0.652671
	H2307	H	0.209788	0.475311	0.652107
	H2308	H	0.185224	0.481422	0.599330
	H2309	H	0.247746	0.543991	0.598181
	H2310	H	0.149203	0.461207	0.902846
	H2311	H	0.211595	0.524652	0.901273
	H2312	H	0.149052	0.462037	0.600417
	H2313	H	0.211719	0.524032	0.599652
	H2314	H	0.185229	0.481683	0.903289
	H2315	H	0.247671	0.544464	0.901718
	H2316	H	0.157291	0.509751	0.850490
	H2317	H	0.219095	0.452330	0.978368
	H2318	H	0.169645	0.516799	0.349941
	H2319	H	0.228388	0.426200	0.610463
	H2320	H	0.169723	0.516388	0.850895
	H2321	H	0.228731	0.427077	0.978823
	H2322	H	0.157163	0.510256	0.350443
	H2323	H	0.218727	0.451378	0.610116
	H2324	H	0.173787	0.472145	0.603302
	H2325	H	0.236381	0.534190	0.898284
	H2326	H	0.161304	0.465629	0.898828
	H2327	H	0.223696	0.528773	0.602058
	H2328	H	0.161190	0.466328	0.603709
	H2329	H	0.223782	0.528233	0.898246
	H2330	H	0.173928	0.471370	0.898925
	H2331	H	0.236324	0.534517	0.602128
	Co2332	Co	0.259907	0.570008	0.624780
	Co2333	Co	0.197386	0.507535	0.625449
	Co2334	Co	0.134907	0.444863	0.876946
	Co2335	Co	0.197445	0.507659	0.875624
	C2336	C	0.143633	0.508655	0.923099
	C2337	C	0.209048	0.478111	0.923180
	C2338	C	0.183018	0.521298	0.577536
	C2339	C	0.238551	0.400605	0.577925
	C2340	C	0.183051	0.521247	0.923071
	C2341	C	0.238641	0.400786	0.924543
	C2342	C	0.143625	0.509021	0.578390
	C2343	C	0.208898	0.477675	0.577897
	C2344	C	0.186269	0.483161	0.673218
	C2345	C	0.248734	0.545838	0.672412
	C2346	C	0.147982	0.460817	0.828850
	C2347	C	0.210371	0.523825	0.827751
	C2348	C	0.147914	0.461220	0.674524
	C2349	C	0.210412	0.523521	0.673337
	C2350	C	0.186268	0.483320	0.828640
	C2351	C	0.248709	0.546067	0.827424
	C2352	C	0.148350	0.507583	1.001001
	C2353	C	0.212367	0.468911	0.501079
	C2354	C	0.178378	0.521154	1.001026
	C2355	C	0.235197	0.409716	0.501666
	C2356	C	0.182256	0.478137	0.751167
	C2357	C	0.244690	0.540845	0.750079
	C2358	C	0.152434	0.463163	0.751533
	C2359	C	0.214928	0.525787	0.750489
	C2360	C	0.156081	0.509596	1.001097
	C2361	C	0.218198	0.454055	0.501465
	C2362	C	0.170779	0.517677	1.001244
	C2363	C	0.229438	0.424818	0.501596
	C2364	C	0.174929	0.472562	0.750995
	C2365	C	0.237395	0.535208	0.749993
	C2366	C	0.160091	0.466020	0.751276
	C2367	C	0.222580	0.528516	0.750296
	C2368	C	0.159904	0.511372	0.917328
	C2369	C	0.221176	0.446694	0.988055
	C2370	C	0.166968	0.515562	0.416824
	C2371	C	0.226415	0.431956	0.562452
	C2372	C	0.167030	0.515266	0.917586
	C2373	C	0.226661	0.432480	0.988238
	C2374	C	0.159834	0.511713	0.417050
	C2375	C	0.220962	0.446195	0.562336
	C2376	C	0.171130	0.470738	0.668638
	C2377	C	0.233646	0.532997	0.832728
	C2378	C	0.163998	0.467124	0.833597
	C2379	C	0.226399	0.529942	0.667622
	C2380	C	0.163932	0.467524	0.668773
	C2381	C	0.226439	0.529721	0.832755
	C2382	C	0.171188	0.470343	0.833456
	C2383	C	0.233599	0.533249	0.667450
	N2384	N	0.136692	0.511383	0.952220
	N2385	N	0.203929	0.490942	0.952622
	N2386	N	0.189968	0.520538	0.549437
	N2387	N	0.243454	0.387256	0.548749
	N2388	N	0.190007	0.520572	0.951559
	N2389	N	0.243552	0.387422	0.953586
	N2390	N	0.136663	0.511645	0.549462
	N2391	N	0.203837	0.490707	0.548546
	N2392	N	0.192012	0.491262	0.702510
	N2393	N	0.254493	0.553899	0.701466
	N2394	N	0.141334	0.457499	0.800272
	N2395	N	0.203747	0.520524	0.798918
	N2396	N	0.141297	0.457743	0.703393
	N2397	N	0.203778	0.520287	0.702119
	N2398	N	0.192012	0.491369	0.799011
	N2399	N	0.254462	0.554104	0.797819
	H2400	H	0.139603	0.591796	0.348027
	H2401	H	0.207480	0.570682	0.347446
	H2402	H	0.176350	0.605262	0.151543
	H2403	H	0.244149	0.584220	0.151985
	H2404	H	0.176446	0.605345	0.347929
	H2405	H	0.244256	0.584558	0.347634
	H2406	H	0.139527	0.591684	0.152311
	H2407	H	0.207356	0.570389	0.151832
	H2408	H	0.178999	0.565219	0.097524
	H2409	H	0.241566	0.627497	0.097471
	H2410	H	0.142278	0.548304	0.402218
	H2411	H	0.204810	0.610699	0.401845
	H2412	H	0.142332	0.547876	0.097736
	H2413	H	0.204763	0.610936	0.097575
	H2414	H	0.178978	0.565091	0.402478
	H2415	H	0.241508	0.627806	0.402011
	H2416	H	0.151666	0.596759	0.348794
	H2417	H	0.219734	0.572614	0.650250
	H2418	H	0.164061	0.603326	-0.150876
	H2419	H	0.232132	0.579525	0.149825
	H2420	H	0.164137	0.603320	0.349066
	H2421	H	0.232231	0.579093	0.650415
	H2422	H	0.151534	0.596897	-0.150279
	H2423	H	0.219612	0.573150	0.149788
	H2424	H	0.166944	0.559010	0.098931
	H2425	H	0.229452	0.621851	0.098664
	H2426	H	0.154308	0.554307	0.400534
	H2427	H	0.216765	0.616647	0.399958
	H2428	H	0.154306	0.554121	0.099205
	H2429	H	0.216730	0.617196	0.098889
	H2430	H	0.167002	0.558951	0.400906
	H2431	H	0.229452	0.621449	0.400038
	Co2432	Co	0.254399	0.650312	0.123120
	Co2433	Co	0.191870	0.587961	0.124260
	Co2434	Co	0.129362	0.525497	0.376273
	Co2435	Co	0.191904	0.587857	0.375570
	C2436	C	0.138280	0.592337	0.422016
	C2437	C	0.206195	0.571383	0.422239
	C2438	C	0.177654	0.604524	0.077023
	C2439	C	0.245491	0.583821	0.077504
	C2440	C	0.177720	0.604664	0.422340
	C2441	C	0.245556	0.584032	0.422281
	C2442	C	0.138197	0.592215	0.077588
	C2443	C	0.206105	0.571434	0.077171
	C2444	C	0.180050	0.566587	0.172414
	C2445	C	0.242584	0.628991	0.172330
	C2446	C	0.141207	0.546833	0.327582
	C2447	C	0.203712	0.609357	0.327388
	C2448	C	0.141221	0.546759	0.172513
	C2449	C	0.203676	0.609440	0.172147
	C2450	C	0.180043	0.566630	0.327298
	C2451	C	0.242576	0.629101	0.327234
	C2452	C	0.142964	0.592414	0.499547
	C2453	C	0.210796	0.570256	-0.000431
	C2454	C	0.173000	0.605736	0.499790
	C2455	C	0.240854	0.583727	-0.000416
	C2456	C	0.175741	0.562952	0.249859
	C2457	C	0.238258	0.625462	0.249648
	C2458	C	0.145532	0.550357	0.250042
	C2459	C	0.207979	0.613066	0.249406
	C2460	C	0.150567	0.595784	0.499284
	C2461	C	0.218532	0.572279	-0.000317
	C2462	C	0.165276	0.603683	0.499592
	C2463	C	0.233240	0.580272	-0.000428
	C2464	C	0.168160	0.559247	0.249839
	C2465	C	0.230652	0.621882	0.249383
	C2466	C	0.153123	0.553966	0.249827
	C2467	C	0.215578	0.616717	0.249324
	C2468	C	0.154328	0.598096	0.415649
	C2469	C	0.222416	0.574110	0.583632
	C2470	C	0.161393	0.601876	-0.084106
	C2471	C	0.229467	0.578097	0.083209
	C2472	C	0.161470	0.601870	0.415990
	C2473	C	0.229534	0.577948	0.583525
	C2474	C	0.154252	0.598057	-0.083657
	C2475	C	0.222331	0.574282	0.083242
	C2476	C	0.164256	0.557953	0.166129
	C2477	C	0.226751	0.620743	0.165791
	C2478	C	0.157015	0.555349	0.333614
	C2479	C	0.219471	0.617926	0.333138
	C2480	C	0.156993	0.555301	0.166181
	C2481	C	0.219461	0.618210	0.165816
	C2482	C	0.164292	0.557912	0.333797
	C2483	C	0.226739	0.620512	0.332998
	N2484	N	0.131331	0.592991	0.450663
	N2485	N	0.199241	0.573997	0.450842
	N2486	N	0.184602	0.601929	0.048238
	N2487	N	0.252469	0.583180	0.048991
	N2488	N	0.184631	0.601931	0.451165
	N2489	N	0.252526	0.583293	0.450663
	N2490	N	0.131241	0.592820	0.049007
	N2491	N	0.199170	0.574027	0.048541
	N2492	N	0.186290	0.572553	0.201165
	N2493	N	0.248833	0.634885	0.200764
	N2494	N	0.134954	0.540920	0.298886
	N2495	N	0.197461	0.603365	0.298553
	N2496	N	0.134983	0.540849	0.201564
	N2497	N	0.197462	0.603393	0.201324
	N2498	N	0.186286	0.572560	0.298523
	N2499	N	0.248829	0.635015	0.298255
	H2500	H	0.139559	0.591713	0.847299
	H2501	H	0.207375	0.570863	0.848019
	H2502	H	0.176395	0.605374	0.652498
	H2503	H	0.244263	0.584316	0.652480
	H2504	H	0.176350	0.605239	0.846874
	H2505	H	0.244219	0.584505	0.847156
	H2506	H	0.139634	0.591664	0.651982
	H2507	H	0.207433	0.570549	0.651627
	H2508	H	0.178964	0.565263	0.597917
	H2509	H	0.241570	0.627486	0.597041
	H2510	H	0.142327	0.548408	0.903151
	H2511	H	0.204894	0.610843	0.902022
	H2512	H	0.142338	0.548273	0.598624
	H2513	H	0.204954	0.610458	0.597113
	H2514	H	0.179089	0.565208	0.901932
	H2515	H	0.241526	0.627925	0.901617
	H2516	H	0.151598	0.596922	1.150628
	H2517	H	0.219725	0.572457	0.849317
	H2518	H	0.164131	0.603154	0.650453
	H2519	H	0.232208	0.579483	0.349693
	H2520	H	0.164102	0.603250	1.149984
	H2521	H	0.232208	0.578986	0.849508
	H2522	H	0.151659	0.596710	0.650126
	H2523	H	0.219713	0.572863	0.349738
	H2524	H	0.167027	0.558999	0.599912
	H2525	H	0.229567	0.621814	0.599110
	H2526	H	0.154297	0.554609	0.901119
	H2527	H	0.216908	0.616549	0.899792
	H2528	H	0.154335	0.554466	0.600173
	H2529	H	0.216866	0.616992	0.598928
	H2530	H	0.167024	0.558909	0.901005
	H2531	H	0.229615	0.621308	0.899406
	Co2532	Co	0.254393	0.650444	0.622855
	Co2533	Co	0.191920	0.587957	0.623826
	Co2534	Co	0.129426	0.525583	0.876831
	Co2535	Co	0.191936	0.588129	0.875616
	C2536	C	0.138211	0.592202	0.922413
	C2537	C	0.206123	0.571477	0.922091
	C2538	C	0.177700	0.604492	0.577704
	C2539	C	0.245567	0.583851	0.577628
	C2540	C	0.177661	0.604581	0.921769
	C2541	C	0.245517	0.583961	0.922132
	C2542	C	0.138294	0.592221	0.577409
	C2543	C	0.206177	0.571321	0.577396
	C2544	C	0.180076	0.566625	0.672673
	C2545	C	0.242632	0.629031	0.671620
	C2546	C	0.141236	0.547045	0.828390
	C2547	C	0.203769	0.609415	0.827133
	C2548	C	0.141245	0.547008	0.673240
	C2549	C	0.203806	0.609213	0.671702
	C2550	C	0.180136	0.566625	0.827640
	C2551	C	0.242621	0.629211	0.826939
	C2552	C	0.142881	0.592396	0.999904
	C2553	C	0.210861	0.570165	0.499883
	C2554	C	0.172950	0.605664	0.999224
	C2555	C	0.240910	0.583810	0.500088
	C2556	C	0.175804	0.562945	0.750525
	C2557	C	0.238316	0.625527	0.749263
	C2558	C	0.145546	0.550650	0.750814
	C2559	C	0.208116	0.612910	0.749351
	C2560	C	0.150505	0.595778	0.999929
	C2561	C	0.218604	0.572238	0.499929
	C2562	C	0.165217	0.603676	0.999295
	C2563	C	0.233294	0.580359	0.500016
	C2564	C	0.168210	0.559233	0.750435
	C2565	C	0.230734	0.621898	0.749306
	C2566	C	0.153146	0.554232	0.750744
	C2567	C	0.215705	0.616537	0.749291
	C2568	C	0.154264	0.598109	1.083604
	C2569	C	0.222362	0.574039	0.916095
	C2570	C	0.161473	0.601743	0.583447
	C2571	C	0.229540	0.578036	0.416377
	C2572	C	0.161409	0.601853	1.083208
	C2573	C	0.229494	0.577832	0.916057
	C2574	C	0.154327	0.598032	0.583255
	C2575	C	0.222415	0.574162	0.416370
	C2576	C	0.164325	0.557935	0.666755
	C2577	C	0.226827	0.620740	0.665795
	C2578	C	0.157028	0.555551	0.834374
	C2579	C	0.219588	0.617796	0.832771
	C2580	C	0.157045	0.555425	0.667028
	C2581	C	0.219561	0.618085	0.665847
	C2582	C	0.164305	0.557979	0.834129
	C2583	C	0.226867	0.620458	0.832868
	N2584	N	0.131265	0.592825	0.950658
	N2585	N	0.199182	0.574077	0.950866
	N2586	N	0.184637	0.601883	0.548778
	N2587	N	0.252534	0.583162	0.548930
	N2588	N	0.184597	0.601971	0.950741
	N2589	N	0.252473	0.583245	0.950766
	N2590	N	0.131318	0.592895	0.548813
	N2591	N	0.199232	0.574010	0.548271
	N2592	N	0.186311	0.572662	0.701104
	N2593	N	0.248860	0.635020	0.700557
	N2594	N	0.135018	0.540990	0.799564
	N2595	N	0.197542	0.603421	0.798162
	N2596	N	0.134994	0.541050	0.702426
	N2597	N	0.197566	0.603311	0.700942
	N2598	N	0.186342	0.572662	0.798457
	N2599	N	0.248863	0.635082	0.797835
	H2600	H	0.143243	0.765088	0.348582
	H2601	H	0.202050	0.654069	0.347127
	H2602	H	0.173502	0.699486	0.150322
	H2603	H	0.238833	0.667724	0.151387
	H2604	H	0.173409	0.699099	0.347844
	H2605	H	0.238833	0.668184	0.346777
	H2606	H	0.143428	0.765424	0.151329
	H2607	H	0.202010	0.654354	0.151811
	H2608	H	0.172084	0.651714	0.097720
	H2609	H	0.234570	0.714269	0.097237
	H2610	H	0.135941	0.631986	0.400869
	H2611	H	0.198458	0.694336	0.402111
	H2612	H	0.135837	0.631712	0.096878
	H2613	H	0.198452	0.694436	0.098176
	H2614	H	0.172068	0.651340	0.400187
	H2615	H	0.234742	0.713715	0.400150
	H2616	H	0.152744	0.742390	0.524389
	H2617	H	0.214109	0.658598	0.349192
	H2618	H	0.163672	0.721110	0.007335
	H2619	H	0.226551	0.665902	0.149438
	H2620	H	0.163227	0.719467	0.523941
	H2621	H	0.226583	0.665205	0.348635
	H2622	H	0.153203	0.744100	0.007755
	H2623	H	0.214045	0.659477	0.149396
	H2624	H	0.159945	0.647097	0.100294
	H2625	H	0.222612	0.709690	0.397434
	H2626	H	0.147349	0.641580	0.396235
	H2627	H	0.209841	0.704344	0.102088
	H2628	H	0.147334	0.641418	0.100885
	H2629	H	0.209943	0.704070	0.397911
	H2630	H	0.159992	0.647347	0.396249
	H2631	H	0.222490	0.709997	0.101119
	Co2632	Co	0.248896	0.730749	0.123207
	Co2633	Co	0.186371	0.668410	0.124544
	Co2634	Co	0.123875	0.605923	0.375371
	Co2635	Co	0.186339	0.668209	0.374588
	C2636	C	0.142316	0.767453	0.422395
	C2637	C	0.200730	0.654593	0.421870
	C2638	C	0.174457	0.697081	0.076592
	C2639	C	0.240165	0.666834	0.076699
	C2640	C	0.174399	0.696843	0.421802
	C2641	C	0.240165	0.667154	0.421220
	C2642	C	0.142404	0.767693	0.077230
	C2643	C	0.200705	0.654698	0.077294
	C2644	C	0.173345	0.652196	0.171355
	C2645	C	0.235841	0.714828	0.171233
	C2646	C	0.134909	0.630300	0.326480
	C2647	C	0.197514	0.692542	0.327793
	C2648	C	0.134879	0.630168	0.171454
	C2649	C	0.197464	0.692779	0.172789
	C2650	C	0.173341	0.652036	0.326118
	C2651	C	0.235927	0.714515	0.326159
	C2652	C	0.146033	0.759309	0.499455
	C2653	C	0.205354	0.654825	-0.000572
	C2654	C	0.170744	0.705139	0.499017
	C2655	C	0.235451	0.668086	-0.000941
	C2656	C	0.168839	0.649974	0.248693
	C2657	C	0.231387	0.712561	0.249000
	C2658	C	0.138935	0.635219	0.248834
	C2659	C	0.201501	0.697763	0.250349
	C2660	C	0.152285	0.745580	0.499610
	C2661	C	0.212957	0.658252	-0.000733
	C2662	C	0.164487	0.718904	0.499113
	C2663	C	0.227692	0.666065	-0.000709
	C2664	C	0.161161	0.647194	0.248561
	C2665	C	0.223700	0.709777	0.249231
	C2666	C	0.146275	0.640720	0.248832
	C2667	C	0.208838	0.703259	0.250165
	C2668	C	0.155209	0.738031	0.513426
	C2669	C	0.216798	0.660193	0.415624
	C2670	C	0.161363	0.725910	0.004193
	C2671	C	0.223872	0.664441	0.082887
	C2672	C	0.161135	0.725061	0.513044
	C2673	C	0.223946	0.663920	0.415667
	C2674	C	0.155446	0.738938	0.004484
	C2675	C	0.216730	0.660670	0.082711
	C2676	C	0.157271	0.645886	0.166118
	C2677	C	0.219869	0.708421	0.332096
	C2678	C	0.150086	0.642762	0.331089
	C2679	C	0.212600	0.705385	0.167447
	C2680	C	0.150065	0.642686	0.166235
	C2681	C	0.212661	0.705267	0.332495
	C2682	C	0.157294	0.645960	0.330866
	C2683	C	0.219808	0.708552	0.166844
	N2684	N	0.136939	0.779629	0.451791
	N2685	N	0.193769	0.655188	0.450520
	N2686	N	0.179859	0.685001	0.047202
	N2687	N	0.247109	0.664310	0.047654
	N2688	N	0.179815	0.684797	0.451254
	N2689	N	0.247099	0.664470	0.450240
	N2690	N	0.137027	0.779824	0.047978
	N2691	N	0.193740	0.655355	0.048749
	N2692	N	0.179978	0.655562	0.200497
	N2693	N	0.242500	0.718044	0.199861
	N2694	N	0.129142	0.622255	0.297628
	N2695	N	0.191726	0.684579	0.298578
	N2696	N	0.129119	0.622162	0.201200
	N2697	N	0.191735	0.684604	0.201858
	N2698	N	0.179975	0.655440	0.297604
	N2699	N	0.242535	0.717952	0.296826
	H2700	H	0.143275	0.764981	0.849289
	H2701	H	0.201989	0.654050	0.847452
	H2702	H	0.173616	0.699592	0.650198
	H2703	H	0.238782	0.667685	0.651563
	H2704	H	0.173366	0.699144	0.848914
	H2705	H	0.238844	0.667965	0.846881
	H2706	H	0.143423	0.765560	0.650021
	H2707	H	0.202075	0.654146	0.651893
	H2708	H	0.172089	0.651848	0.597881
	H2709	H	0.234574	0.714323	0.597934
	H2710	H	0.136008	0.631844	0.901333
	H2711	H	0.198435	0.694378	0.901828
	H2712	H	0.135931	0.631661	0.597271
	H2713	H	0.198579	0.694033	0.598210
	H2714	H	0.172178	0.651264	0.900446
	H2715	H	0.234701	0.713980	0.900543
	H2716	H	0.153109	0.743413	0.993590
	H2717	H	0.214042	0.659099	0.849063
	H2718	H	0.163989	0.722009	0.474696
	H2719	H	0.226544	0.666085	0.649335
	H2720	H	0.163543	0.720491	0.993081
	H2721	H	0.226560	0.665363	0.849253
	H2722	H	0.153521	0.744940	0.474396
	H2723	H	0.214067	0.659361	0.649427
	H2724	H	0.160067	0.646992	0.601297
	H2725	H	0.222505	0.710047	0.601944
	H2726	H	0.147394	0.641740	0.896801
	H2727	H	0.210006	0.703500	0.897517
	H2728	H	0.147498	0.641199	0.601202
	H2729	H	0.209885	0.704332	0.602897
	H2730	H	0.160002	0.647534	0.897217
	H2731	H	0.222620	0.709262	0.897040
	Co2732	Co	0.248891	0.730849	0.623534
	Co2733	Co	0.186399	0.668310	0.624185
	Co2734	Co	0.123860	0.605955	0.875092
	Co2735	Co	0.186333	0.668358	0.874351
	C2736	C	0.142339	0.767489	0.922939
	C2737	C	0.200688	0.654609	0.921930
	C2738	C	0.174510	0.697132	0.576192
	C2739	C	0.240150	0.666984	0.576989
	C2740	C	0.174370	0.696943	0.922379
	C2741	C	0.240164	0.667017	0.921475
	C2742	C	0.142403	0.767660	0.576607
	C2743	C	0.200739	0.654641	0.577158
	C2744	C	0.173337	0.652306	0.672008
	C2745	C	0.235869	0.714813	0.671838
	C2746	C	0.135012	0.630163	0.826709
	C2747	C	0.197474	0.692699	0.827172
	C2748	C	0.135015	0.629984	0.671817
	C2749	C	0.197554	0.692498	0.672393
	C2750	C	0.173393	0.651994	0.826493
	C2751	C	0.235921	0.714608	0.826461
	C2752	C	0.146060	0.759387	1.000242
	C2753	C	0.205402	0.654841	0.499623
	C2754	C	0.170705	0.705191	0.999687
	C2755	C	0.235440	0.668204	0.499201
	C2756	C	0.168876	0.649952	0.749341
	C2757	C	0.231395	0.712586	0.749168
	C2758	C	0.139030	0.635172	0.749118
	C2759	C	0.201558	0.697653	0.749826
	C2760	C	0.152284	0.745617	1.000308
	C2761	C	0.213020	0.658129	0.499307
	C2762	C	0.164466	0.718910	1.000084
	C2763	C	0.227729	0.666070	0.499128
	C2764	C	0.161210	0.647158	0.749488
	C2765	C	0.223727	0.709803	0.749453
	C2766	C	0.146348	0.640683	0.749100
	C2767	C	0.208878	0.703192	0.750005
	C2768	C	0.155384	0.738605	0.996411
	C2769	C	0.216731	0.660334	0.915804
	C2770	C	0.161553	0.726426	0.485604
	C2771	C	0.223919	0.664403	0.582581
	C2772	C	0.161299	0.725600	0.996005
	C2773	C	0.223884	0.664036	0.916016
	C2774	C	0.155636	0.739410	0.485504
	C2775	C	0.216772	0.660603	0.582773
	C2776	C	0.157372	0.645757	0.666814
	C2777	C	0.219840	0.708565	0.667358
	C2778	C	0.150124	0.642848	0.831525
	C2779	C	0.212698	0.704975	0.832336
	C2780	C	0.150173	0.642581	0.666680
	C2781	C	0.212626	0.705388	0.667838
	C2782	C	0.157324	0.646037	0.831702
	C2783	C	0.219900	0.708218	0.832055
	N2784	N	0.136970	0.779672	0.952076
	N2785	N	0.193726	0.655328	0.950540
	N2786	N	0.179900	0.684985	0.547031
	N2787	N	0.247083	0.664414	0.548137
	N2788	N	0.179805	0.684892	0.951543
	N2789	N	0.247109	0.664486	0.950191
	N2790	N	0.136991	0.779789	0.547382
	N2791	N	0.193776	0.655197	0.548563
	N2792	N	0.179962	0.655662	0.700693
	N2793	N	0.242499	0.718185	0.700268
	N2794	N	0.129252	0.622106	0.798052
	N2795	N	0.191729	0.684640	0.797755
	N2796	N	0.129248	0.622000	0.701290
	N2797	N	0.191770	0.684584	0.701306
	N2798	N	0.179997	0.655446	0.797779
	N2799	N	0.242541	0.718088	0.797479
	H2800	H	0.140412	0.859056	0.347629
	H2801	H	0.205584	0.827114	0.349384
	H2802	H	0.177239	0.872985	0.153605
	H2803	H	0.235954	0.761462	0.149623
	H2804	H	0.177215	0.873159	0.348408
	H2805	H	0.235797	0.761220	0.347879
	H2806	H	0.140458	0.859081	0.151871
	H2807	H	0.205815	0.827502	0.151384
	H2808	H	0.180787	0.832463	0.098545
	H2809	H	0.243248	0.895118	0.098240
	H2810	H	0.144602	0.813121	0.401418
	H2811	H	0.207177	0.875062	0.402509
	H2812	H	0.144553	0.813065	0.098886
	H2813	H	0.207202	0.874859	0.100352
	H2814	H	0.180533	0.832963	0.402217
	H2815	H	0.243313	0.895080	0.401969
	H2816	H	0.152693	0.860603	0.349475
	H2817	H	0.215287	0.805070	0.488300
	H2818	H	0.165138	0.868164	0.151093
	H2819	H	0.225896	0.782719	-0.078903
	H2820	H	0.165207	0.867208	0.349472
	H2821	H	0.225759	0.782200	0.487554
	H2822	H	0.152629	0.861531	0.150400
	H2823	H	0.215384	0.805456	-0.077871
	H2824	H	0.169349	0.822422	0.397850
	H2825	H	0.231906	0.885213	0.398531
	H2826	H	0.156538	0.818094	0.100894
	H2827	H	0.219196	0.879722	0.102989
	H2828	H	0.156715	0.816686	0.398701
	H2829	H	0.219267	0.879288	0.398985
	H2830	H	0.169192	0.823957	0.100839
	H2831	H	0.231825	0.885512	0.102419
	Co2832	Co	0.255423	0.921095	0.125428
	Co2833	Co	0.192934	0.858416	0.126057
	Co2834	Co	0.130379	0.796108	0.375258
	Co2835	Co	0.192850	0.858597	0.376408
	C2836	C	0.139102	0.859710	0.422665
	C2837	C	0.204670	0.829624	0.423109
	C2838	C	0.178541	0.872403	0.078671
	C2839	C	0.236973	0.759432	0.075971
	C2840	C	0.178538	0.872416	0.423014
	C2841	C	0.236852	0.759260	0.421813
	C2842	C	0.139179	0.859694	0.077356
	C2843	C	0.204848	0.829812	0.077607
	C2844	C	0.181755	0.834328	0.172913
	C2845	C	0.244266	0.896812	0.172788
	C2846	C	0.143343	0.812374	0.327441
	C2847	C	0.205932	0.874442	0.328305
	C2848	C	0.143323	0.812385	0.172966
	C2849	C	0.205970	0.874327	0.173791
	C2850	C	0.181620	0.834607	0.327968
	C2851	C	0.244287	0.896805	0.327554
	C2852	C	0.143789	0.858546	0.500477
	C2853	C	0.208537	0.821700	0.000396
	C2854	C	0.173842	0.872116	0.500523
	C2855	C	0.233331	0.767795	-0.001199
	C2856	C	0.177657	0.829379	0.249905
	C2857	C	0.240254	0.891717	0.250268
	C2858	C	0.147837	0.814540	0.250033
	C2859	C	0.210446	0.876544	0.251241
	C2860	C	0.151498	0.860739	0.500264
	C2861	C	0.214793	0.808006	-0.000015
	C2862	C	0.166219	0.868765	0.500239
	C2863	C	0.227053	0.781485	-0.001119
	C2864	C	0.170316	0.823906	0.249424
	C2865	C	0.232925	0.886148	0.250687
	C2866	C	0.155502	0.817342	0.249732
	C2867	C	0.218124	0.879396	0.251086
	C2868	C	0.155339	0.862374	0.416288
	C2869	C	0.217699	0.800541	0.492963
	C2870	C	0.162463	0.866826	0.084328
	C2871	C	0.223739	0.787949	-0.044335
	C2872	C	0.162487	0.866202	0.416360
	C2873	C	0.223660	0.787658	0.492950
	C2874	C	0.155348	0.862955	0.083916
	C2875	C	0.217777	0.800826	-0.043759
	C2876	C	0.166584	0.821572	0.332443
	C2877	C	0.229166	0.884020	0.333324
	C2878	C	0.159298	0.819094	0.166596
	C2879	C	0.221942	0.880872	0.168285
	C2880	C	0.159390	0.818315	0.332782
	C2881	C	0.221981	0.880724	0.333521
	C2882	C	0.166499	0.822339	0.166477
	C2883	C	0.229127	0.884187	0.168037
	N2884	N	0.132159	0.862115	0.451327
	N2885	N	0.199340	0.841832	0.452787
	N2886	N	0.185512	0.871623	0.050430
	N2887	N	0.242370	0.747365	0.046446
	N2888	N	0.185493	0.871767	0.451981
	N2889	N	0.242280	0.747266	0.451170
	N2890	N	0.132229	0.862054	0.048496
	N2891	N	0.199445	0.841968	0.048612
	N2892	N	0.187502	0.842378	0.202810
	N2893	N	0.250051	0.904835	0.201919
	N2894	N	0.136698	0.809036	0.298685
	N2895	N	0.199304	0.871114	0.299277
	N2896	N	0.136699	0.808990	0.201837
	N2897	N	0.199315	0.871115	0.202533
	N2898	N	0.187443	0.842446	0.299164
	N2899	N	0.250046	0.904862	0.298508
	H2900	H	0.140443	0.858803	0.847383
	H2901	H	0.205887	0.827943	0.849588
	H2902	H	0.177153	0.872387	0.652782
	H2903	H	0.236200	0.762215	0.650471
	H2904	H	0.177266	0.872802	0.848352
	H2905	H	0.236045	0.762035	0.847999
	H2906	H	0.140375	0.858518	0.652825
	H2907	H	0.205899	0.827749	0.650830
	H2908	H	0.180795	0.832572	0.599068
	H2909	H	0.243302	0.894891	0.598819
	H2910	H	0.144563	0.813112	0.900925
	H2911	H	0.207034	0.875753	0.902192
	H2912	H	0.144613	0.812928	0.598950
	H2913	H	0.207060	0.875313	0.599604
	H2914	H	0.180822	0.832719	0.902848
	H2915	H	0.243323	0.895106	0.902076
	H2916	H	0.152740	0.861178	0.849940
	H2917	H	0.215968	0.806786	1.077274
	H2918	H	0.165082	0.867987	0.650981
	H2919	H	0.226551	0.784500	0.509808
	H2920	H	0.165228	0.867681	0.850389
	H2921	H	0.226479	0.783969	1.076172
	H2922	H	0.152622	0.861526	0.651048
	H2923	H	0.215973	0.807164	0.510943
	H2924	H	0.169391	0.823382	0.602729
	H2925	H	0.231855	0.884837	0.602131
	H2926	H	0.156752	0.817019	0.897803
	H2927	H	0.219210	0.880083	0.899160
	H2928	H	0.156754	0.817732	0.602211
	H2929	H	0.219212	0.879243	0.602918
	H2930	H	0.169371	0.822662	0.898679
	H2931	H	0.231825	0.885723	0.898695
	Co2932	Co	0.255378	0.921113	0.624917
	Co2933	Co	0.192903	0.858537	0.625571
	Co2934	Co	0.130438	0.796184	0.874895
	Co2935	Co	0.192918	0.858706	0.876030
	C2936	C	0.139188	0.859772	0.921911
	C2937	C	0.204877	0.830026	0.923314
	C2938	C	0.178514	0.872080	0.578375
	C2939	C	0.237057	0.759769	0.576444
	C2940	C	0.178542	0.872311	0.923241
	C2941	C	0.237026	0.759656	0.921559
	C2942	C	0.139098	0.859433	0.578132
	C2943	C	0.204848	0.829943	0.577359
	C2944	C	0.181789	0.834298	0.673606
	C2945	C	0.244277	0.896701	0.672938
	C2946	C	0.143389	0.812445	0.826824
	C2947	C	0.205852	0.875003	0.828379
	C2948	C	0.143413	0.812384	0.672742
	C2949	C	0.205867	0.874809	0.674088
	C2950	C	0.181791	0.834418	0.828384
	C2951	C	0.244288	0.896713	0.827612
	C2952	C	0.143841	0.858784	0.999803
	C2953	C	0.208447	0.821578	0.499905
	C2954	C	0.173908	0.872228	1.001014
	C2955	C	0.233259	0.767797	0.499225
	C2956	C	0.177776	0.829315	0.750910
	C2957	C	0.240255	0.891663	0.750487
	C2958	C	0.147907	0.814577	0.749790
	C2959	C	0.210366	0.876980	0.751335
	C2960	C	0.151582	0.860911	1.000090
	C2961	C	0.214740	0.807951	0.499567
	C2962	C	0.166269	0.868926	1.000812
	C2963	C	0.226988	0.781442	0.499249
	C2964	C	0.170431	0.823847	0.750518
	C2965	C	0.232923	0.886135	0.750626
	C2966	C	0.155582	0.817284	0.750129
	C2967	C	0.218050	0.879623	0.751214
	C2968	C	0.155402	0.862688	0.916485
	C2969	C	0.218112	0.801527	1.042935
	C2970	C	0.162434	0.866634	0.583825
	C2971	C	0.224066	0.788883	0.505524
	C2972	C	0.162519	0.866517	0.917008
	C2973	C	0.224077	0.788649	1.042379
	C2974	C	0.155297	0.862786	0.584091
	C2975	C	0.218108	0.801784	0.505572
	C2976	C	0.166641	0.822048	0.667899
	C2977	C	0.229142	0.883903	0.667903
	C2978	C	0.159441	0.818417	0.832575
	C2979	C	0.221915	0.881148	0.833613
	C2980	C	0.159441	0.818844	0.667851
	C2981	C	0.221932	0.880751	0.668326
	C2982	C	0.166641	0.821616	0.833087
	C2983	C	0.229116	0.884307	0.833322
	N2984	N	0.132229	0.862022	0.951078
	N2985	N	0.199460	0.842085	0.952876
	N2986	N	0.185473	0.871547	0.550150
	N2987	N	0.242410	0.747557	0.546679
	N2988	N	0.185506	0.871645	0.951875
	N2989	N	0.242391	0.747481	0.950775
	N2990	N	0.132171	0.862023	0.549039
	N2991	N	0.199442	0.842052	0.548484
	N2992	N	0.187560	0.842318	0.702568
	N2993	N	0.250061	0.904691	0.701841
	N2994	N	0.136751	0.809111	0.798015
	N2995	N	0.199229	0.871587	0.799472
	N2996	N	0.136783	0.809078	0.701054
	N2997	N	0.199226	0.871501	0.702476
	N2998	N	0.187588	0.842368	0.799096
	N2999	N	0.250044	0.904744	0.798507
	H3000	H	0.134486	0.946297	0.347000
	H3001	H	0.202867	0.921463	0.348447
	H3002	H	0.171793	0.955167	0.152719
	H3003	H	0.239733	0.935435	0.152340
	H3004	H	0.171776	0.955794	0.348542
	H3005	H	0.239712	0.935223	0.347273
	H3006	H	0.134520	0.946357	0.152665
	H3007	H	0.202967	0.921222	0.152909
	H3008	H	0.174492	0.915163	0.098976
	H3009	H	0.236836	0.978417	0.097941
	H3010	H	0.137599	0.899195	0.401747
	H3011	H	0.200119	0.961795	0.402085
	H3012	H	0.137603	0.899337	0.097872
	H3013	H	0.200145	0.961572	0.097803
	H3014	H	0.174230	0.916306	0.403254
	H3015	H	0.236901	0.978379	0.402170
	H3016	H	0.146760	0.948614	0.651094
	H3017	H	0.215178	0.923602	0.651268
	H3018	H	0.159532	0.953386	0.150936
	H3019	H	0.227640	0.930665	-0.150602
	H3020	H	0.159405	0.953750	0.651428
	H3021	H	0.227666	0.930308	0.650832
	H3022	H	0.146874	0.948182	0.150976
	H3023	H	0.215205	0.923959	-0.150602
	H3024	H	0.162345	0.909610	0.401242
	H3025	H	0.224797	0.972590	0.401240
	H3026	H	0.149560	0.906143	0.099481
	H3027	H	0.212118	0.968052	0.099526
	H3028	H	0.149625	0.905110	0.400697
	H3029	H	0.212108	0.968084	0.400841
	H3030	H	0.162296	0.910488	0.099623
	H3031	H	0.224821	0.972536	0.099428
	Co3032	Co	0.249845	1.000941	0.123924
	Co3033	Co	0.187384	0.938096	0.125426
	Co3034	Co	0.124829	0.875916	0.375453
	Co3035	Co	0.187316	0.938567	0.376230
	C3036	C	0.133243	0.947193	0.422195
	C3037	C	0.201576	0.922244	0.423041
	C3038	C	0.173073	0.954465	0.077868
	C3039	C	0.241049	0.934895	0.077788
	C3040	C	0.173048	0.954869	0.423306
	C3041	C	0.241040	0.934756	0.422407
	C3042	C	0.133243	0.947142	0.077737
	C3043	C	0.201682	0.922106	0.078117
	C3044	C	0.175512	0.916793	0.173405
	C3045	C	0.237937	0.979785	0.172388
	C3046	C	0.136571	0.897665	0.327358
	C3047	C	0.199067	0.960303	0.327527
	C3048	C	0.136544	0.897844	0.172597
	C3049	C	0.199061	0.960189	0.172444
	C3050	C	0.175380	0.917348	0.328816
	C3051	C	0.237977	0.979714	0.327631
	C3052	C	0.137917	0.946020	0.499763
	C3053	C	0.206365	0.921133	0.000303
	C3054	C	0.168355	0.955828	0.500985
	C3055	C	0.236372	0.934754	0.000063
	C3056	C	0.171116	0.913508	0.250963
	C3057	C	0.233637	0.976247	0.250090
	C3058	C	0.140841	0.901596	0.250006
	C3059	C	0.203331	0.964126	0.249915
	C3060	C	0.145687	0.947730	0.500078
	C3061	C	0.214074	0.923349	-0.000111
	C3062	C	0.160576	0.954033	0.500595
	C3063	C	0.228763	0.931415	-0.000107
	C3064	C	0.163491	0.910128	0.250559
	C3065	C	0.226008	0.972796	0.250260
	C3066	C	0.148434	0.905252	0.250152
	C3067	C	0.210920	0.967816	0.250032
	C3068	C	0.149498	0.949556	0.584095
	C3069	C	0.217840	0.925111	0.584453
	C3070	C	0.156794	0.952318	0.084199
	C3071	C	0.224977	0.929275	-0.083748
	C3072	C	0.156709	0.952567	0.584429
	C3073	C	0.224993	0.928880	0.584133
	C3074	C	0.149571	0.949334	0.083935
	C3075	C	0.217852	0.925390	-0.083904
	C3076	C	0.159626	0.908706	0.334440
	C3077	C	0.222092	0.971638	0.334070
	C3078	C	0.152309	0.906765	0.166348
	C3079	C	0.214828	0.969040	0.166411
	C3080	C	0.152330	0.906346	0.334116
	C3081	C	0.214810	0.969166	0.333748
	C3082	C	0.159603	0.909129	0.166547
	C3083	C	0.222116	0.971495	0.166472
	N3084	N	0.126288	0.949940	0.450856
	N3085	N	0.194637	0.924600	0.451693
	N3086	N	0.180023	0.951910	0.049165
	N3087	N	0.248020	0.934082	0.049090
	N3088	N	0.179994	0.952248	0.452349
	N3089	N	0.248000	0.934197	0.451169
	N3090	N	0.126301	0.949778	0.048823
	N3091	N	0.194746	0.924540	0.049432
	N3092	N	0.181743	0.922811	0.202726
	N3093	N	0.244205	0.985581	0.201043
	N3094	N	0.130386	0.891457	0.298594
	N3095	N	0.192897	0.953953	0.298878
	N3096	N	0.130364	0.891547	0.201205
	N3097	N	0.192895	0.953854	0.201668
	N3098	N	0.181654	0.923141	0.300004
	N3099	N	0.244238	0.985536	0.298404
	H3100	H	0.134554	0.946242	0.847927
	H3101	H	0.202914	0.921296	0.848149
	H3102	H	0.171731	0.955341	0.653206
	H3103	H	0.239734	0.935181	0.652855
	H3104	H	0.171808	0.955446	0.847940
	H3105	H	0.239729	0.935253	0.848218
	H3106	H	0.134493	0.946255	0.651684
	H3107	H	0.202863	0.920868	0.652781
	H3108	H	0.174369	0.915441	0.597749
	H3109	H	0.236794	0.978313	0.597428
	H3110	H	0.137559	0.899025	0.901963
	H3111	H	0.200025	0.961655	0.902143
	H3112	H	0.137576	0.899036	0.597832
	H3113	H	0.199983	0.961700	0.598685
	H3114	H	0.174272	0.915712	0.903022
	H3115	H	0.236757	0.978157	0.902177
	H3116	H	0.146819	0.948425	0.849343
	H3117	H	0.215248	0.923527	1.150180
	H3118	H	0.159518	0.953014	0.349716
	H3119	H	0.227659	0.929894	0.350287
	H3120	H	0.159480	0.953505	0.849635
	H3121	H	0.227722	0.930076	1.150307
	H3122	H	0.146898	0.947916	0.349022
	H3123	H	0.215167	0.923370	0.350781
	H3124	H	0.162265	0.910084	0.598894
	H3125	H	0.224704	0.972492	0.598233
	H3126	H	0.149569	0.905297	0.900618
	H3127	H	0.211973	0.968537	0.900680
	H3128	H	0.149540	0.905849	0.599084
	H3129	H	0.211993	0.968096	0.599112
	H3130	H	0.162284	0.909701	0.900464
	H3131	H	0.224716	0.972724	0.900020
	Co3132	Co	0.249788	1.000693	0.624386
	Co3133	Co	0.187315	0.938077	0.625190
	Co3134	Co	0.124855	0.875569	0.875387
	Co3135	Co	0.187317	0.938003	0.876389
	C3136	C	0.133264	0.947194	0.922400
	C3137	C	0.201645	0.922203	0.922900
	C3138	C	0.173031	0.954579	0.578746
	C3139	C	0.241038	0.934786	0.578172
	C3140	C	0.173074	0.954604	0.922517
	C3141	C	0.241049	0.934801	0.922425
	C3142	C	0.133250	0.947283	0.577271
	C3143	C	0.201569	0.921839	0.578297
	C3144	C	0.175441	0.916868	0.672825
	C3145	C	0.237862	0.979544	0.672422
	C3146	C	0.136513	0.897618	0.827092
	C3147	C	0.198962	0.960207	0.827761
	C3148	C	0.136505	0.897707	0.672345
	C3149	C	0.198968	0.960068	0.673074
	C3150	C	0.175402	0.916913	0.827933
	C3151	C	0.237863	0.979442	0.827176
	C3152	C	0.137948	0.946013	1.000117
	C3153	C	0.206277	0.921011	0.500760
	C3154	C	0.168392	0.955615	1.000134
	C3155	C	0.236368	0.934522	0.500316
	C3156	C	0.171095	0.913380	0.750283
	C3157	C	0.233535	0.976032	0.749634
	C3158	C	0.140779	0.901540	0.749719
	C3159	C	0.203215	0.964113	0.750208
	C3160	C	0.145714	0.947707	1.000130
	C3161	C	0.214017	0.923143	0.500949
	C3162	C	0.160623	0.953917	1.000229
	C3163	C	0.228752	0.931089	0.500383
	C3164	C	0.163466	0.909995	0.749800
	C3165	C	0.225896	0.972785	0.749322
	C3166	C	0.148362	0.905247	0.749795
	C3167	C	0.210796	0.967981	0.749954
	C3168	C	0.149523	0.949433	0.916344
	C3169	C	0.217901	0.925141	1.083597
	C3170	C	0.156778	0.952168	0.416531
	C3171	C	0.224984	0.928702	0.417018
	C3172	C	0.156762	0.952310	0.916477
	C3173	C	0.225029	0.928963	1.083475
	C3174	C	0.149565	0.949208	0.416239
	C3175	C	0.217832	0.925012	0.417319
	C3176	C	0.159553	0.908945	0.665880
	C3177	C	0.221992	0.971530	0.665444
	C3178	C	0.152263	0.906323	0.833543
	C3179	C	0.214686	0.969393	0.833557
	C3180	C	0.152256	0.906621	0.666093
	C3181	C	0.214706	0.969108	0.666097
	C3182	C	0.159554	0.908765	0.833552
	C3183	C	0.221976	0.971742	0.833206
	N3184	N	0.126321	0.949824	0.951184
	N3185	N	0.194723	0.924501	0.951716
	N3186	N	0.179988	0.952053	0.549950
	N3187	N	0.247999	0.934180	0.549255
	N3188	N	0.180025	0.951979	0.951654
	N3189	N	0.248003	0.934041	0.951088
	N3190	N	0.126293	0.949995	0.548629
	N3191	N	0.194629	0.924368	0.549300
	N3192	N	0.181713	0.922684	0.701738
	N3193	N	0.244142	0.985307	0.701315
	N3194	N	0.130353	0.891299	0.798462
	N3195	N	0.192826	0.953684	0.799300
	N3196	N	0.130373	0.891242	0.701147
	N3197	N	0.192831	0.953641	0.702186
	N3198	N	0.181671	0.922805	0.799122
	N3199	N	0.244134	0.985279	0.798597
	H3200	H	0.259557	0.071812	0.347603
	H3201	H	0.327885	0.046691	0.348019
	H3202	H	0.296750	0.080682	0.152705
	H3203	H	0.364716	0.060639	0.152391
	H3204	H	0.296819	0.081111	0.348126
	H3205	H	0.364626	0.060253	0.347968
	H3206	H	0.259536	0.071804	0.152277
	H3207	H	0.327936	0.046679	0.152678
	H3208	H	0.299423	0.040499	0.098352
	H3209	H	0.361732	0.103511	0.098327
	H3210	H	0.262546	0.024676	0.401533
	H3211	H	0.325055	0.086907	0.402682
	H3212	H	0.262685	0.024194	0.097341
	H3213	H	0.325147	0.086687	0.098260
	H3214	H	0.299266	0.041075	0.402500
	H3215	H	0.361850	0.103279	0.403528
	H3216	H	0.271901	0.072847	0.349273
	H3217	H	0.340085	0.049032	0.350478
	H3218	H	0.284484	0.078895	0.151339
	H3219	H	0.352670	0.055400	0.150243
	H3220	H	0.284553	0.078330	0.349805
	H3221	H	0.352598	0.055497	0.349999
	H3222	H	0.271834	0.073758	0.151338
	H3223	H	0.340188	0.048803	0.150345
	H3224	H	0.287266	0.035612	0.099133
	H3225	H	0.349813	0.097513	0.100008
	H3226	H	0.274609	0.030154	0.400322
	H3227	H	0.337014	0.093450	0.401423
	H3228	H	0.274528	0.031295	0.099584
	H3229	H	0.337095	0.093026	0.099639
	H3230	H	0.287326	0.034619	0.400320
	H3231	H	0.349733	0.097948	0.401882
	Co3232	Co	0.374784	0.126032	0.124325
	Co3233	Co	0.312329	0.063439	0.125378
	Co3234	Co	0.249849	0.000976	0.375096
	Co3235	Co	0.312310	0.063517	0.376024
	C3236	C	0.258261	0.072469	0.421956
	C3237	C	0.326575	0.047393	0.422696
	C3238	C	0.298045	0.079881	0.078430
	C3239	C	0.366022	0.060088	0.077240
	C3240	C	0.298052	0.080128	0.423122
	C3241	C	0.365968	0.059861	0.422199
	C3242	C	0.258287	0.072484	0.077783
	C3243	C	0.326635	0.047388	0.077935
	C3244	C	0.300476	0.042097	0.172605
	C3245	C	0.362900	0.104838	0.173053
	C3246	C	0.261534	0.022972	0.326991
	C3247	C	0.324014	0.085469	0.328032
	C3248	C	0.261565	0.022854	0.171939
	C3249	C	0.324045	0.085372	0.172938
	C3250	C	0.300403	0.042335	0.327949
	C3251	C	0.362952	0.104716	0.328564
	C3252	C	0.262932	0.071137	0.499636
	C3253	C	0.331304	0.046351	0.000072
	C3254	C	0.293365	0.081193	0.500522
	C3255	C	0.361350	0.059943	-0.000224
	C3256	C	0.296127	0.038644	0.250118
	C3257	C	0.358595	0.101287	0.250895
	C3258	C	0.265820	0.026750	0.249507
	C3259	C	0.328285	0.089280	0.250321
	C3260	C	0.270718	0.072828	0.499812
	C3261	C	0.339031	0.048510	-0.000189
	C3262	C	0.285593	0.079368	0.500292
	C3263	C	0.353731	0.056596	-0.000264
	C3264	C	0.288494	0.035305	0.249989
	C3265	C	0.350965	0.097930	0.251005
	C3266	C	0.273415	0.030453	0.249943
	C3267	C	0.335881	0.093040	0.250541
	C3268	C	0.274583	0.074226	0.416218
	C3269	C	0.342780	0.050422	0.416865
	C3270	C	0.281753	0.077865	0.084534
	C3271	C	0.349973	0.054204	0.083314
	C3272	C	0.281787	0.077405	0.416393
	C3273	C	0.349915	0.054162	0.416613
	C3274	C	0.274538	0.074869	0.084483
	C3275	C	0.342848	0.050333	0.083430
	C3276	C	0.284578	0.034400	0.166230
	C3277	C	0.347107	0.096557	0.167089
	C3278	C	0.277323	0.031390	0.333639
	C3279	C	0.339767	0.094390	0.334547
	C3280	C	0.277282	0.032073	0.166317
	C3281	C	0.339812	0.094183	0.166874
	C3282	C	0.284614	0.033790	0.333439
	C3283	C	0.347050	0.096822	0.334656
	N3284	N	0.251300	0.075203	0.450773
	N3285	N	0.319616	0.049663	0.451447
	N3286	N	0.304996	0.077242	0.049675
	N3287	N	0.372972	0.059308	0.048584
	N3288	N	0.304989	0.077388	0.452105
	N3289	N	0.372944	0.059342	0.450435
	N3290	N	0.251332	0.075047	0.048787
	N3291	N	0.319671	0.049597	0.049525
	N3292	N	0.306721	0.047991	0.201987
	N3293	N	0.369167	0.110647	0.201798
	N3294	N	0.255375	0.016617	0.297844
	N3295	N	0.317855	0.079047	0.299002
	N3296	N	0.255383	0.016584	0.200895
	N3297	N	0.317884	0.079014	0.201969
	N3298	N	0.306682	0.048138	0.299145
	N3299	N	0.369210	0.110532	0.298998
	H3300	H	0.259558	0.071668	0.847718
	H3301	H	0.327834	0.046304	0.847983
	H3302	H	0.296753	0.080664	0.653020
	H3303	H	0.364689	0.060632	0.651642
	H3304	H	0.296802	0.080894	0.848352
	H3305	H	0.364662	0.060399	0.847073
	H3306	H	0.259475	0.071161	0.652002
	H3307	H	0.327845	0.046281	0.652528
	H3308	H	0.299263	0.041018	0.598523
	H3309	H	0.361746	0.103386	0.597767
	H3310	H	0.262563	0.024073	0.902668
	H3311	H	0.325039	0.086646	0.902729
	H3312	H	0.262605	0.023971	0.599111
	H3313	H	0.324958	0.086931	0.598973
	H3314	H	0.299269	0.040911	0.902866
	H3315	H	0.361719	0.103474	0.902002
	H3316	H	0.271862	0.073468	0.849233
	H3317	H	0.340147	0.048929	0.849390
	H3318	H	0.284403	0.079144	0.651325
	H3319	H	0.352624	0.055208	0.650160
	H3320	H	0.284500	0.078690	0.849227
	H3321	H	0.352628	0.055473	0.849202
	H3322	H	0.271812	0.073959	0.650864
	H3323	H	0.340112	0.048713	0.650669
	H3324	H	0.287159	0.035432	0.599865
	H3325	H	0.349702	0.097678	0.599197
	H3326	H	0.274497	0.030581	0.901141
	H3327	H	0.337053	0.093184	0.900913
	H3328	H	0.274474	0.030714	0.599555
	H3329	H	0.336952	0.093294	0.600011
	H3330	H	0.287212	0.035158	0.901758
	H3331	H	0.349716	0.097783	0.900631
	Co3332	Co	0.374779	0.125732	0.624798
	Co3333	Co	0.312293	0.063293	0.625139
	Co3334	Co	0.249847	0.000486	0.875674
	Co3335	Co	0.312265	0.063246	0.876325
	C3336	C	0.258285	0.072454	0.922541
	C3337	C	0.326599	0.047183	0.922535
	C3338	C	0.298015	0.079968	0.578296
	C3339	C	0.365989	0.060081	0.577377
	C3340	C	0.298074	0.080026	0.923118
	C3341	C	0.365986	0.059985	0.921900
	C3342	C	0.258237	0.072252	0.577182
	C3343	C	0.326567	0.047197	0.578037
	C3344	C	0.300370	0.042248	0.673274
	C3345	C	0.362868	0.104708	0.672266
	C3346	C	0.261486	0.022643	0.828113
	C3347	C	0.323981	0.085262	0.828146
	C3348	C	0.261491	0.022627	0.673173
	C3349	C	0.323937	0.085396	0.673326
	C3350	C	0.300361	0.042254	0.828416
	C3351	C	0.362839	0.104743	0.827709
	C3352	C	0.262968	0.071419	1.000153
	C3353	C	0.331243	0.046306	0.500430
	C3354	C	0.293373	0.081114	1.000585
	C3355	C	0.361315	0.059782	0.499998
	C3356	C	0.296022	0.038773	0.750770
	C3357	C	0.358510	0.101278	0.749702
	C3358	C	0.265757	0.026477	0.750647
	C3359	C	0.328221	0.089256	0.750518
	C3360	C	0.270712	0.073151	1.000269
	C3361	C	0.338975	0.048513	0.500487
	C3362	C	0.285586	0.079469	1.000409
	C3363	C	0.353687	0.056366	0.500076
	C3364	C	0.288383	0.035428	0.750690
	C3365	C	0.350881	0.097908	0.749680
	C3366	C	0.273330	0.030348	0.750393
	C3367	C	0.335797	0.092964	0.750238
	C3368	C	0.274563	0.074641	0.916219
	C3369	C	0.342829	0.050385	0.916131
	C3370	C	0.281729	0.077894	0.584160
	C3371	C	0.349921	0.054048	0.583583
	C3372	C	0.281776	0.077648	0.916244
	C3373	C	0.349954	0.054267	0.916108
	C3374	C	0.274523	0.074826	0.583771
	C3375	C	0.342781	0.050309	0.583948
	C3376	C	0.284457	0.034282	0.666928
	C3377	C	0.347001	0.096603	0.666172
	C3378	C	0.277220	0.031665	0.834239
	C3379	C	0.339721	0.094236	0.833853
	C3380	C	0.277184	0.031722	0.666550
	C3381	C	0.339700	0.094251	0.666565
	C3382	C	0.284511	0.034103	0.834572
	C3383	C	0.347013	0.096689	0.833609
	N3384	N	0.251336	0.075066	0.951105
	N3385	N	0.319646	0.049521	0.951895
	N3386	N	0.304963	0.077279	0.549818
	N3387	N	0.372948	0.059439	0.548704
	N3388	N	0.305004	0.077288	0.952219
	N3389	N	0.372958	0.059264	0.950096
	N3390	N	0.251282	0.075034	0.548277
	N3391	N	0.319613	0.049570	0.549089
	N3392	N	0.306644	0.048021	0.702196
	N3393	N	0.369128	0.110445	0.701573
	N3394	N	0.255343	0.016200	0.798844
	N3395	N	0.317829	0.078799	0.799464
	N3396	N	0.255324	0.016261	0.701980
	N3397	N	0.317808	0.078878	0.702082
	N3398	N	0.306636	0.048015	0.799605
	N3399	N	0.369109	0.110528	0.798858
	H3400	H	0.254083	0.154800	0.346805
	H3401	H	0.321937	0.133979	0.347871
	H3402	H	0.290899	0.168173	0.153245
	H3403	H	0.359216	0.143298	0.152608
	H3404	H	0.290938	0.168229	0.348007
	H3405	H	0.359280	0.143379	0.347836
	H3406	H	0.254063	0.153894	0.151756
	H3407	H	0.321975	0.133892	0.152719
	H3408	H	0.293748	0.127807	0.098383
	H3409	H	0.356234	0.190608	0.097972
	H3410	H	0.256900	0.111506	0.401668
	H3411	H	0.319483	0.173868	0.402838
	H3412	H	0.257011	0.111423	0.097694
	H3413	H	0.319538	0.173831	0.098506
	H3414	H	0.293692	0.128084	0.402296
	H3415	H	0.356184	0.190607	0.402114
	H3416	H	0.266227	0.158847	0.348725
	H3417	H	0.334298	0.135972	0.349590
	H3418	H	0.278512	0.166456	0.150974
	H3419	H	0.346978	0.140785	0.151167
	H3420	H	0.278667	0.165419	0.349097
	H3421	H	0.346911	0.141109	0.349482
	H3422	H	0.266046	0.159928	0.150646
	H3423	H	0.334358	0.135718	0.151451
	H3424	H	0.281687	0.122172	0.099423
	H3425	H	0.344287	0.183537	0.099501
	H3426	H	0.269071	0.116802	0.400867
	H3427	H	0.331527	0.179852	0.401065
	H3428	H	0.268968	0.117578	0.099251
	H3429	H	0.331552	0.179137	0.099385
	H3430	H	0.281762	0.121166	0.401041
	H3431	H	0.344233	0.184279	0.400855
	Co3432	Co	0.368979	0.213959	0.125369
	Co3433	Co	0.306453	0.151424	0.124858
	Co3434	Co	0.243962	0.088982	0.374588
	Co3435	Co	0.306444	0.151382	0.375897
	C3436	C	0.252800	0.155068	0.421226
	C3437	C	0.320688	0.134826	0.422897
	C3438	C	0.292161	0.167517	0.078485
	C3439	C	0.360503	0.142448	0.077726
	C3440	C	0.292157	0.167569	0.422658
	C3441	C	0.360554	0.142381	0.422798
	C3442	C	0.252751	0.154601	0.076856
	C3443	C	0.320693	0.134781	0.078020
	C3444	C	0.294808	0.129378	0.173118
	C3445	C	0.357286	0.191822	0.172869
	C3446	C	0.255818	0.110244	0.327208
	C3447	C	0.318363	0.172578	0.328320
	C3448	C	0.255858	0.110131	0.172225
	C3449	C	0.318394	0.172430	0.172913
	C3450	C	0.294769	0.129453	0.327908
	C3451	C	0.357226	0.192028	0.327757
	C3452	C	0.257428	0.154921	0.499012
	C3453	C	0.325395	0.133766	0.000560
	C3454	C	0.287482	0.168477	0.499928
	C3455	C	0.355806	0.143488	0.000125
	C3456	C	0.290502	0.125575	0.250215
	C3457	C	0.352989	0.188082	0.250123
	C3458	C	0.260206	0.113609	0.249702
	C3459	C	0.322707	0.175982	0.250473
	C3460	C	0.265067	0.158279	0.499128
	C3461	C	0.333153	0.135456	0.000397
	C3462	C	0.279735	0.166346	0.499361
	C3463	C	0.348047	0.141718	0.000118
	C3464	C	0.282906	0.121861	0.250060
	C3465	C	0.345415	0.184238	0.250107
	C3466	C	0.267822	0.116908	0.250002
	C3467	C	0.330344	0.179339	0.250324
	C3468	C	0.268872	0.160325	0.415593
	C3469	C	0.337000	0.137188	0.416622
	C3470	C	0.275893	0.164734	0.083960
	C3471	C	0.344244	0.139874	0.084305
	C3472	C	0.275978	0.164159	0.415673
	C3473	C	0.344226	0.140149	0.416533
	C3474	C	0.268766	0.160903	0.083758
	C3475	C	0.337024	0.136920	0.084271
	C3476	C	0.278982	0.120945	0.166372
	C3477	C	0.341539	0.182666	0.166487
	C3478	C	0.271737	0.117982	0.333758
	C3479	C	0.334234	0.180724	0.334066
	C3480	C	0.271685	0.118457	0.166389
	C3481	C	0.334250	0.180269	0.166486
	C3482	C	0.279029	0.120363	0.333922
	C3483	C	0.341513	0.183139	0.333981
	N3484	N	0.245846	0.155700	0.449707
	N3485	N	0.313749	0.137526	0.451777
	N3486	N	0.299123	0.165200	0.049716
	N3487	N	0.367435	0.139814	0.048872
	N3488	N	0.299110	0.165140	0.451874
	N3489	N	0.367491	0.139725	0.451682
	N3490	N	0.245797	0.155343	0.048064
	N3491	N	0.313753	0.137508	0.049234
	N3492	N	0.300957	0.135760	0.201971
	N3493	N	0.363431	0.198221	0.201839
	N3494	N	0.249562	0.104434	0.298133
	N3495	N	0.312108	0.166693	0.299284
	N3496	N	0.249581	0.104404	0.200814
	N3497	N	0.312110	0.166683	0.201984
	N3498	N	0.300963	0.135746	0.298988
	N3499	N	0.363399	0.198365	0.298898
	H3500	H	0.254117	0.154473	0.846729
	H3501	H	0.321983	0.134151	0.848500
	H3502	H	0.290839	0.168219	0.652582
	H3503	H	0.359220	0.143274	0.652495
	H3504	H	0.290925	0.168751	0.848385
	H3505	H	0.359226	0.143197	0.848044
	H3506	H	0.254075	0.154014	0.651266
	H3507	H	0.321916	0.133806	0.652942
	H3508	H	0.293751	0.127698	0.598762
	H3509	H	0.356243	0.190370	0.599145
	H3510	H	0.256880	0.111644	0.902063
	H3511	H	0.319368	0.174226	0.902961
	H3512	H	0.257005	0.111141	0.596845
	H3513	H	0.319550	0.173656	0.598336
	H3514	H	0.293526	0.128465	0.902509
	H3515	H	0.356175	0.190795	0.902842
	H3516	H	0.266240	0.158826	0.849186
	H3517	H	0.334250	0.136344	0.849257
	H3518	H	0.278522	0.166507	0.649538
	H3519	H	0.346894	0.141386	0.651582
	H3520	H	0.278708	0.165481	0.850078
	H3521	H	0.346862	0.141561	0.848936
	H3522	H	0.266049	0.159807	0.649319
	H3523	H	0.334236	0.136238	0.651015
	H3524	H	0.281714	0.121959	0.599284
	H3525	H	0.344217	0.184228	0.600901
	H3526	H	0.269030	0.116859	0.900560
	H3527	H	0.331493	0.179848	0.901723
	H3528	H	0.268991	0.117488	0.598745
	H3529	H	0.331505	0.179668	0.600230
	H3530	H	0.281719	0.121206	0.901040
	H3531	H	0.344182	0.184232	0.901855
	Co3532	Co	0.368973	0.213898	0.625031
	Co3533	Co	0.306426	0.151360	0.625075
	Co3534	Co	0.243985	0.088865	0.874692
	Co3535	Co	0.306434	0.151567	0.876243
	C3536	C	0.252783	0.154854	0.921526
	C3537	C	0.320699	0.135061	0.922851
	C3538	C	0.292094	0.167424	0.577949
	C3539	C	0.360541	0.142378	0.578130
	C3540	C	0.292186	0.167762	0.923205
	C3541	C	0.360499	0.142323	0.922538
	C3542	C	0.252799	0.154574	0.576649
	C3543	C	0.320680	0.134779	0.578171
	C3544	C	0.294758	0.129411	0.672828
	C3545	C	0.357259	0.191965	0.673425
	C3546	C	0.255825	0.110216	0.826959
	C3547	C	0.318307	0.172805	0.828220
	C3548	C	0.255869	0.109951	0.671729
	C3549	C	0.318375	0.172470	0.673075
	C3550	C	0.294663	0.129765	0.827862
	C3551	C	0.357223	0.192139	0.828225
	C3552	C	0.257441	0.154855	0.999424
	C3553	C	0.325387	0.133645	0.500653
	C3554	C	0.287483	0.168652	1.000782
	C3555	C	0.355844	0.143543	0.500463
	C3556	C	0.290451	0.125748	0.750113
	C3557	C	0.352971	0.188225	0.750874
	C3558	C	0.260187	0.113559	0.749203
	C3559	C	0.322670	0.176147	0.750630
	C3560	C	0.265065	0.158334	0.999941
	C3561	C	0.333153	0.135505	0.500537
	C3562	C	0.279763	0.166403	1.000497
	C3563	C	0.348068	0.141809	0.500470
	C3564	C	0.282872	0.121981	0.749905
	C3565	C	0.345383	0.184467	0.751142
	C3566	C	0.267815	0.116914	0.749453
	C3567	C	0.330312	0.179537	0.750821
	C3568	C	0.268874	0.160395	0.916388
	C3569	C	0.336953	0.137288	0.916302
	C3570	C	0.275875	0.164764	0.583005
	C3571	C	0.344230	0.140173	0.584347
	C3572	C	0.275992	0.164287	0.916648
	C3573	C	0.344186	0.140270	0.916130
	C3574	C	0.268767	0.160907	0.582862
	C3575	C	0.336991	0.137175	0.584328
	C3576	C	0.278972	0.120835	0.666122
	C3577	C	0.341495	0.183148	0.667386
	C3578	C	0.271712	0.118010	0.833497
	C3579	C	0.334202	0.180820	0.834654
	C3580	C	0.271704	0.118285	0.665918
	C3581	C	0.334208	0.180720	0.667273
	C3582	C	0.278991	0.120490	0.833821
	C3583	C	0.341494	0.183198	0.834813
	N3584	N	0.245811	0.155483	0.949829
	N3585	N	0.313759	0.137619	0.951578
	N3586	N	0.299070	0.165091	0.549535
	N3587	N	0.367482	0.139739	0.549376
	N3588	N	0.299135	0.165327	0.952047
	N3589	N	0.367448	0.139803	0.951382
	N3590	N	0.245824	0.155453	0.547781
	N3591	N	0.313746	0.137479	0.549233
	N3592	N	0.300911	0.135771	0.702036
	N3593	N	0.363427	0.198300	0.702104
	N3594	N	0.249569	0.104334	0.797993
	N3595	N	0.312059	0.166885	0.799301
	N3596	N	0.249582	0.104269	0.700659
	N3597	N	0.312108	0.166649	0.701955
	N3598	N	0.300867	0.135986	0.799154
	N3599	N	0.363416	0.198352	0.799273
	H3600	H	0.260596	0.335377	0.352348
	H3601	H	0.316552	0.216898	0.348599
	H3602	H	0.288350	0.262990	0.151434
	H3603	H	0.353388	0.230913	0.152530
	H3604	H	0.288477	0.262986	0.350029
	H3605	H	0.353385	0.231149	0.348832
	H3606	H	0.260681	0.335831	0.150329
	H3607	H	0.316552	0.216784	0.153758
	H3608	H	0.286710	0.214378	0.099705
	H3609	H	0.349172	0.277028	0.099403
	H3610	H	0.250500	0.194769	0.400283
	H3611	H	0.312973	0.257273	0.402590
	H3612	H	0.250709	0.194208	0.096729
	H3613	H	0.313074	0.256897	0.098729
	H3614	H	0.286697	0.214282	0.402172
	H3615	H	0.349100	0.277127	0.401507
	H3616	H	0.270019	0.312594	0.507129
	H3617	H	0.328611	0.222227	0.350391
	H3618	H	0.279426	0.287060	-0.025903
	H3619	H	0.341041	0.228658	-0.149552
	H3620	H	0.279676	0.287466	0.507122
	H3621	H	0.341074	0.228671	0.350043
	H3622	H	0.269826	0.312419	-0.026282
	H3623	H	0.328596	0.222053	-0.148937
	H3624	H	0.274636	0.210686	0.102223
	H3625	H	0.337063	0.272438	0.103018
	H3626	H	0.262015	0.203742	0.397586
	H3627	H	0.324393	0.267174	0.398723
	H3628	H	0.262039	0.204826	0.101296
	H3629	H	0.324480	0.266467	0.103175
	H3630	H	0.274612	0.209625	0.398086
	H3631	H	0.337018	0.273061	0.398796
	Co3632	Co	0.363370	0.293687	0.125754
	Co3633	Co	0.300904	0.231053	0.125533
	Co3634	Co	0.238411	0.168748	0.374139
	Co3635	Co	0.300890	0.231112	0.376381
	C3636	C	0.259733	0.337975	0.425162
	C3637	C	0.315272	0.217439	0.423083
	C3638	C	0.289323	0.260725	0.077535
	C3639	C	0.354661	0.230025	0.078181
	C3640	C	0.289355	0.260765	0.423775
	C3641	C	0.354688	0.230239	0.422814
	C3642	C	0.259813	0.338126	0.077166
	C3643	C	0.315268	0.217252	0.079153
	C3644	C	0.287914	0.215022	0.173604
	C3645	C	0.350355	0.277761	0.173437
	C3646	C	0.249565	0.192908	0.326182
	C3647	C	0.312003	0.255491	0.328381
	C3648	C	0.249625	0.192751	0.171158
	C3649	C	0.312037	0.255340	0.173419
	C3650	C	0.287930	0.214905	0.328132
	C3651	C	0.350349	0.277809	0.327868
	C3652	C	0.263098	0.328936	0.501663
	C3653	C	0.319927	0.217467	0.001459
	C3654	C	0.285922	0.269655	0.500746
	C3655	C	0.349973	0.231100	0.000595
	C3656	C	0.283420	0.212865	0.250889
	C3657	C	0.345843	0.275714	0.250733
	C3658	C	0.253622	0.197906	0.248735
	C3659	C	0.316045	0.260478	0.250897
	C3660	C	0.268874	0.313907	0.501420
	C3661	C	0.327543	0.220781	0.001361
	C3662	C	0.280151	0.284656	0.500819
	C3663	C	0.342242	0.228895	0.000660
	C3664	C	0.275758	0.210071	0.250405
	C3665	C	0.338172	0.272859	0.250977
	C3666	C	0.260935	0.203456	0.249397
	C3667	C	0.323352	0.266093	0.250895
	C3668	C	0.271939	0.306829	0.504565
	C3669	C	0.331294	0.223491	0.417002
	C3670	C	0.277299	0.292390	-0.014321
	C3671	C	0.338404	0.227068	-0.082766
	C3672	C	0.277421	0.292635	0.504055
	C3673	C	0.338438	0.227240	0.416961
	C3674	C	0.271853	0.306648	-0.014390
	C3675	C	0.331285	0.223189	-0.082294
	C3676	C	0.271919	0.209087	0.167356
	C3677	C	0.334346	0.271274	0.168491
	C3678	C	0.264715	0.205205	0.332279
	C3679	C	0.327122	0.268287	0.333524
	C3680	C	0.264723	0.205832	0.167033
	C3681	C	0.327157	0.267975	0.168582
	C3682	C	0.271911	0.208433	0.332722
	C3683	C	0.334308	0.271604	0.333540
	N3684	N	0.254824	0.351346	0.453894
	N3685	N	0.308328	0.218104	0.451714
	N3686	N	0.294425	0.247800	0.048426
	N3687	N	0.361601	0.227670	0.049548
	N3688	N	0.294400	0.247730	0.453342
	N3689	N	0.361616	0.227710	0.451656
	N3690	N	0.254910	0.351573	0.048311
	N3691	N	0.308301	0.218017	0.050392
	N3692	N	0.294538	0.218341	0.202459
	N3693	N	0.356977	0.281105	0.202379
	N3694	N	0.243823	0.184820	0.296917
	N3695	N	0.306255	0.247370	0.299264
	N3696	N	0.243845	0.184733	0.200100
	N3697	N	0.306247	0.247357	0.202641
	N3698	N	0.294548	0.218307	0.299364
	N3699	N	0.356980	0.281138	0.299159
	H3700	H	0.260717	0.335794	0.850816
	H3701	H	0.316571	0.217128	0.848233
	H3702	H	0.288570	0.263316	0.651495
	H3703	H	0.353346	0.230770	0.653252
	H3704	H	0.288515	0.263488	0.849471
	H3705	H	0.353367	0.230808	0.848097
	H3706	H	0.260765	0.335728	0.650473
	H3707	H	0.316641	0.216966	0.653556
	H3708	H	0.286759	0.214280	0.599829
	H3709	H	0.349283	0.276536	0.600358
	H3710	H	0.250520	0.194508	0.901093
	H3711	H	0.312958	0.257314	0.902982
	H3712	H	0.250633	0.194280	0.597538
	H3713	H	0.313179	0.256877	0.599566
	H3714	H	0.286644	0.214602	0.901846
	H3715	H	0.349135	0.277373	0.902399
	H3716	H	0.269494	0.311326	1.026577
	H3717	H	0.328699	0.221753	1.151971
	H3718	H	0.279024	0.285870	0.493638
	H3719	H	0.341124	0.228409	0.651114
	H3720	H	0.279158	0.286173	1.027043
	H3721	H	0.341123	0.228438	1.151075
	H3722	H	0.269337	0.310774	0.494891
	H3723	H	0.328655	0.221858	0.650979
	H3724	H	0.274589	0.210524	0.602025
	H3725	H	0.337112	0.272771	0.603285
	H3726	H	0.262017	0.203518	0.898200
	H3727	H	0.324508	0.266626	0.899389
	H3728	H	0.261947	0.204690	0.601144
	H3729	H	0.324481	0.266953	0.603490
	H3730	H	0.274610	0.209361	0.899051
	H3731	H	0.337109	0.272663	0.899200
	Co3732	Co	0.363399	0.293620	0.626191
	Co3733	Co	0.300949	0.231102	0.625632
	Co3734	Co	0.238385	0.168587	0.874200
	Co3735	Co	0.300884	0.231206	0.875793
	C3736	C	0.259815	0.338133	0.924221
	C3737	C	0.315264	0.217460	0.923667
	C3738	C	0.289393	0.260885	0.577922
	C3739	C	0.354667	0.229994	0.578458
	C3740	C	0.289398	0.260969	0.923253
	C3741	C	0.354665	0.230143	0.923104
	C3742	C	0.259824	0.338128	0.577803
	C3743	C	0.315309	0.217461	0.578646
	C3744	C	0.287950	0.214885	0.673847
	C3745	C	0.350449	0.277431	0.674104
	C3746	C	0.249529	0.192847	0.826458
	C3747	C	0.312006	0.255547	0.828573
	C3748	C	0.249589	0.192616	0.671738
	C3749	C	0.312136	0.255207	0.673644
	C3750	C	0.287889	0.215111	0.828082
	C3751	C	0.350379	0.277840	0.828418
	C3752	C	0.263128	0.329001	1.000628
	C3753	C	0.319946	0.217644	0.500574
	C3754	C	0.285915	0.269606	1.000390
	C3755	C	0.349979	0.231186	0.500460
	C3756	C	0.283426	0.212860	0.750757
	C3757	C	0.345917	0.275586	0.751218
	C3758	C	0.253579	0.197811	0.749058
	C3759	C	0.316085	0.260393	0.751407
	C3760	C	0.268900	0.313903	1.000336
	C3761	C	0.327544	0.221080	0.500523
	C3762	C	0.280105	0.284597	1.000406
	C3763	C	0.342261	0.229039	0.500364
	C3764	C	0.275749	0.210020	0.750353
	C3765	C	0.338243	0.272752	0.751206
	C3766	C	0.260921	0.203374	0.749723
	C3767	C	0.323427	0.265939	0.751500
	C3768	C	0.271687	0.306126	1.015218
	C3769	C	0.331330	0.223064	1.084783
	C3770	C	0.277055	0.291678	0.497393
	C3771	C	0.338469	0.227036	0.584225
	C3772	C	0.277114	0.291838	1.015287
	C3773	C	0.338449	0.226913	1.084498
	C3774	C	0.271588	0.305883	0.497749
	C3775	C	0.331327	0.223250	0.584230
	C3776	C	0.271878	0.208939	0.667454
	C3777	C	0.334407	0.271354	0.668700
	C3778	C	0.264715	0.205089	0.832727
	C3779	C	0.327207	0.268030	0.834008
	C3780	C	0.264689	0.205665	0.666954
	C3781	C	0.327223	0.268032	0.668922
	C3782	C	0.271902	0.208348	0.833120
	C3783	C	0.334385	0.271357	0.833718
	N3784	N	0.254916	0.351555	0.953352
	N3785	N	0.308294	0.218154	0.952075
	N3786	N	0.294437	0.247805	0.548770
	N3787	N	0.361608	0.227556	0.549537
	N3788	N	0.294470	0.247970	0.952491
	N3789	N	0.361598	0.227681	0.951897
	N3790	N	0.254911	0.351491	0.548993
	N3791	N	0.308340	0.218121	0.549919
	N3792	N	0.294567	0.218318	0.702519
	N3793	N	0.357062	0.280831	0.703225
	N3794	N	0.243787	0.184709	0.797075
	N3795	N	0.306247	0.247499	0.799147
	N3796	N	0.243797	0.184626	0.700779
	N3797	N	0.306330	0.247272	0.702635
	N3798	N	0.294535	0.218426	0.799483
	N3799	N	0.357038	0.281020	0.799898
	H3800	H	0.272297	0.538036	0.348212
	H3801	H	0.323194	0.398126	0.349986
	H3802	H	0.300059	0.465722	0.148277
	H3803	H	0.350790	0.325635	0.151762
	H3804	H	0.300012	0.465580	0.349954
	H3805	H	0.350926	0.325842	0.350498
	H3806	H	0.272176	0.537854	0.150692
	H3807	H	0.323126	0.398283	0.149766
	H3808	H	0.297723	0.413696	0.103513
	H3809	H	0.360151	0.476851	0.102805
	H3810	H	0.263097	0.387206	0.398782
	H3811	H	0.325598	0.450198	0.396044
	H3812	H	0.262970	0.388010	0.104460
	H3813	H	0.325499	0.450594	0.101896
	H3814	H	0.297856	0.413206	0.398215
	H3815	H	0.360407	0.475101	0.396411
	H3816	H	0.281436	0.514545	0.558805
	H3817	H	0.332103	0.374162	0.537855
	H3818	H	0.290697	0.488608	-0.047568
	H3819	H	0.342374	0.350692	-0.039262
	H3820	H	0.291074	0.489463	0.558734
	H3821	H	0.341747	0.349050	0.538746
	H3822	H	0.280994	0.513578	-0.046858
	H3823	H	0.332739	0.375876	-0.039535
	H3824	H	0.286477	0.405911	0.274945
	H3825	H	0.348981	0.468223	0.276062
	H3826	H	0.274400	0.394902	0.227160
	H3827	H	0.336813	0.458302	0.222529
	H3828	H	0.274150	0.397270	0.274909
	H3829	H	0.336667	0.459756	0.275177
	H3830	H	0.286737	0.403518	0.227390
	H3831	H	0.349187	0.466668	0.223567
	Co3832	Co	0.374226	0.494322	0.124195
	Co3833	Co	0.311626	0.432019	0.124288
	Co3834	Co	0.249159	0.369219	0.376630
	Co3835	Co	0.311675	0.431979	0.374726
	C3836	C	0.271418	0.540448	0.422044
	C3837	C	0.322296	0.400696	0.423144
	C3838	C	0.300992	0.463279	0.075381
	C3839	C	0.351829	0.323416	0.077909
	C3840	C	0.300994	0.463164	0.422705
	C3841	C	0.351869	0.323407	0.424281
	C3842	C	0.271331	0.540246	0.076813
	C3843	C	0.322243	0.400741	0.076726
	C3844	C	0.298912	0.414651	0.175186
	C3845	C	0.361392	0.477441	0.174264
	C3846	C	0.261904	0.386392	0.327013
	C3847	C	0.324381	0.449253	0.324377
	C3848	C	0.261843	0.386778	0.175961
	C3849	C	0.324349	0.449446	0.173386
	C3850	C	0.298970	0.414473	0.326234
	C3851	C	0.361541	0.476575	0.324870
	C3852	C	0.274911	0.531662	0.499308
	C3853	C	0.325632	0.391615	0.000396
	C3854	C	0.297705	0.472360	0.499366
	C3855	C	0.348446	0.332407	0.000997
	C3856	C	0.294760	0.410861	0.251018
	C3857	C	0.357281	0.473329	0.249558
	C3858	C	0.266065	0.390269	0.251557
	C3859	C	0.328550	0.453093	0.248917
	C3860	C	0.280719	0.516739	0.499251
	C3861	C	0.331361	0.376534	0.000487
	C3862	C	0.291993	0.487489	0.499393
	C3863	C	0.342616	0.347263	0.000714
	C3864	C	0.287535	0.405316	0.251188
	C3865	C	0.350019	0.468016	0.249472
	C3866	C	0.273344	0.395476	0.251324
	C3867	C	0.335803	0.458424	0.249028
	C3868	C	0.283560	0.509143	0.532623
	C3869	C	0.334222	0.368795	0.521689
	C3870	C	0.288819	0.494499	-0.027019
	C3871	C	0.340023	0.355533	-0.021755
	C3872	C	0.289044	0.494945	0.532678
	C3873	C	0.339670	0.354537	0.522388
	C3874	C	0.283331	0.508634	-0.026974
	C3875	C	0.334557	0.369776	-0.022062
	C3876	C	0.283844	0.403466	0.264767
	C3877	C	0.346336	0.466020	0.264158
	C3878	C	0.277036	0.397261	0.237802
	C3879	C	0.339472	0.460443	0.234531
	C3880	C	0.276902	0.398591	0.264469
	C3881	C	0.339383	0.461297	0.263908
	C3882	C	0.283983	0.402092	0.238018
	C3883	C	0.346445	0.465152	0.234608
	N3884	N	0.266318	0.553316	0.451491
	N3885	N	0.317389	0.414112	0.452148
	N3886	N	0.305885	0.449797	0.046786
	N3887	N	0.356971	0.310593	0.048806
	N3888	N	0.305916	0.449806	0.451717
	N3889	N	0.356927	0.310369	0.453298
	N3890	N	0.266256	0.553201	0.047316
	N3891	N	0.317356	0.414106	0.047377
	N3892	N	0.305105	0.420358	0.203249
	N3893	N	0.367618	0.482882	0.202607
	N3894	N	0.255698	0.380806	0.298294
	N3895	N	0.318189	0.443581	0.295991
	N3896	N	0.255670	0.381063	0.204494
	N3897	N	0.318158	0.443711	0.202072
	N3898	N	0.305144	0.420214	0.296962
	N3899	N	0.367720	0.482337	0.296361
	H3900	H	0.272299	0.538217	0.849292
	H3901	H	0.323149	0.398252	0.850745
	H3902	H	0.300254	0.466056	0.648960
	H3903	H	0.350881	0.325612	0.652710
	H3904	H	0.300228	0.465880	0.850102
	H3905	H	0.351103	0.326225	0.850114
	H3906	H	0.272298	0.537758	0.649893
	H3907	H	0.323278	0.398429	0.648867
	H3908	H	0.297721	0.414128	0.602775
	H3909	H	0.360322	0.476012	0.602099
	H3910	H	0.263033	0.387742	0.898315
	H3911	H	0.325544	0.450286	0.897750
	H3912	H	0.263076	0.387966	0.602690
	H3913	H	0.325569	0.450211	0.603236
	H3914	H	0.297893	0.413059	0.896260
	H3915	H	0.360380	0.475734	0.897264
	H3916	H	0.281873	0.515611	1.045403
	H3917	H	0.331602	0.373210	1.040130
	H3918	H	0.291270	0.489697	0.440082
	H3919	H	0.341860	0.349460	0.463841
	H3920	H	0.291585	0.490550	1.044822
	H3921	H	0.341266	0.348133	1.040493
	H3922	H	0.281615	0.514797	0.439574
	H3923	H	0.332200	0.374545	0.462833
	H3924	H	0.286376	0.406585	0.711628
	H3925	H	0.349244	0.466507	0.753552
	H3926	H	0.274528	0.394443	0.788358
	H3927	H	0.336600	0.459707	0.747333
	H3928	H	0.274017	0.398206	0.711461
	H3929	H	0.336872	0.458061	0.754441
	H3930	H	0.286821	0.403079	0.788391
	H3931	H	0.349010	0.468154	0.746108
	Co3932	Co	0.374181	0.494390	0.624233
	Co3933	Co	0.311662	0.432180	0.624175
	Co3934	Co	0.249223	0.369454	0.876431
	Co3935	Co	0.311647	0.431902	0.874708
	C3936	C	0.271379	0.540419	0.922742
	C3937	C	0.322268	0.400688	0.923608
	C3938	C	0.301089	0.463425	0.575905
	C3939	C	0.351839	0.323269	0.578548
	C3940	C	0.301060	0.463314	0.922776
	C3941	C	0.351999	0.323708	0.924066
	C3942	C	0.271412	0.540320	0.576513
	C3943	C	0.322336	0.400819	0.576188
	C3944	C	0.298925	0.414785	0.673770
	C3945	C	0.361447	0.477070	0.674149
	C3946	C	0.261904	0.386732	0.826178
	C3947	C	0.324360	0.449248	0.825957
	C3948	C	0.261880	0.386876	0.674633
	C3949	C	0.324376	0.449294	0.674903
	C3950	C	0.299047	0.414246	0.824736
	C3951	C	0.361484	0.476945	0.825399
	C3952	C	0.274834	0.531543	0.999729
	C3953	C	0.325657	0.391621	0.499850
	C3954	C	0.297704	0.472389	0.999023
	C3955	C	0.348410	0.332196	0.501536
	C3956	C	0.294831	0.410643	0.749536
	C3957	C	0.357280	0.473314	0.749691
	C3958	C	0.266066	0.390547	0.750161
	C3959	C	0.328541	0.453017	0.750732
	C3960	C	0.280677	0.516700	0.999291
	C3961	C	0.331385	0.376474	0.500307
	C3962	C	0.291962	0.487554	0.998754
	C3963	C	0.342619	0.347170	0.501742
	C3964	C	0.287542	0.405454	0.749945
	C3965	C	0.350031	0.467943	0.750134
	C3966	C	0.273328	0.395852	0.750081
	C3967	C	0.335823	0.458237	0.750637
	C3968	C	0.283810	0.509785	1.025094
	C3969	C	0.333949	0.368312	1.022825
	C3970	C	0.289142	0.495090	0.465978
	C3971	C	0.339750	0.354779	0.480334
	C3972	C	0.289287	0.495626	1.024541
	C3973	C	0.339411	0.354072	1.022760
	C3974	C	0.283668	0.509322	0.466039
	C3975	C	0.334285	0.369005	0.479665
	C3976	C	0.283777	0.404018	0.728352
	C3977	C	0.346472	0.465024	0.752337
	C3978	C	0.277089	0.397231	0.771855
	C3979	C	0.339386	0.461150	0.748587
	C3980	C	0.276817	0.399300	0.728392
	C3981	C	0.339519	0.460253	0.752824
	C3982	C	0.284043	0.402014	0.771739
	C3983	C	0.346341	0.465906	0.748184
	N3984	N	0.266290	0.553328	0.952061
	N3985	N	0.317380	0.414080	0.952611
	N3986	N	0.305976	0.450000	0.546904
	N3987	N	0.356907	0.310284	0.549088
	N3988	N	0.305922	0.449780	0.951903
	N3989	N	0.357074	0.310781	0.953295
	N3990	N	0.266315	0.553240	0.547253
	N3991	N	0.317416	0.414191	0.547268
	N3992	N	0.305154	0.420350	0.702093
	N3993	N	0.367636	0.482769	0.702991
	N3994	N	0.255711	0.381134	0.797761
	N3995	N	0.318159	0.443659	0.796811
	N3996	N	0.255703	0.381132	0.703616
	N3997	N	0.318177	0.443720	0.702816
	N3998	N	0.305214	0.420046	0.796083
	N3999	N	0.367662	0.482686	0.796639
	H4000	H	0.269929	0.633295	0.346696
	H4001	H	0.334732	0.600200	0.349783
	H4002	H	0.306687	0.646496	0.153137
	H4003	H	0.362739	0.528043	0.148312
	H4004	H	0.306769	0.647386	0.348482
	H4005	H	0.362462	0.527949	0.351608
	H4006	H	0.269873	0.632660	0.151244
	H4007	H	0.334933	0.600609	0.152270
	H4008	H	0.310252	0.606428	0.098626
	H4009	H	0.372801	0.668753	0.098148
	H4010	H	0.274060	0.587074	0.400421
	H4011	H	0.336797	0.648697	0.402060
	H4012	H	0.274155	0.586169	0.098471
	H4013	H	0.336707	0.649055	0.099002
	H4014	H	0.310159	0.606706	0.402521
	H4015	H	0.372854	0.668648	0.401497
	H4016	H	0.282091	0.636075	0.650358
	H4017	H	0.344090	0.577341	0.465930
	H4018	H	0.294527	0.642708	0.150161
	H4019	H	0.353539	0.551546	-0.037183
	H4020	H	0.294586	0.642779	0.650182
	H4021	H	0.353746	0.552180	0.466085
	H4022	H	0.282056	0.636222	0.149767
	H4023	H	0.343893	0.576599	-0.036301
	H4024	H	0.298712	0.597932	0.101740
	H4025	H	0.361358	0.659555	0.397844
	H4026	H	0.286291	0.590001	0.398021
	H4027	H	0.348839	0.652634	0.102690
	H4028	H	0.286139	0.592054	0.101171
	H4029	H	0.348749	0.653753	0.398347
	H4030	H	0.298898	0.595786	0.398660
	H4031	H	0.361442	0.658350	0.102426
	Co4032	Co	0.384960	0.694660	0.124344
	Co4033	Co	0.322426	0.632424	0.125867
	Co4034	Co	0.259880	0.570152	0.374686
	Co4035	Co	0.322404	0.632419	0.375922
	C4036	C	0.268675	0.634022	0.421665
	C4037	C	0.333906	0.602640	0.423914
	C4038	C	0.308027	0.646102	0.078557
	C4039	C	0.363621	0.525621	0.075309
	C4040	C	0.308062	0.646576	0.423193
	C4041	C	0.363444	0.525412	0.423841
	C4042	C	0.268634	0.633634	0.076645
	C4043	C	0.333991	0.602859	0.078087
	C4044	C	0.311259	0.608190	0.173360
	C4045	C	0.373804	0.670446	0.172374
	C4046	C	0.272860	0.586273	0.326841
	C4047	C	0.335502	0.648279	0.328025
	C4048	C	0.272916	0.585796	0.172162
	C4049	C	0.335469	0.648385	0.173069
	C4050	C	0.311190	0.608403	0.328583
	C4051	C	0.373804	0.670427	0.327298
	C4052	C	0.273345	0.632735	0.499400
	C4053	C	0.337432	0.593895	0.000816
	C4054	C	0.303402	0.646288	0.500669
	C4055	C	0.360234	0.534662	-0.000797
	C4056	C	0.307202	0.603244	0.250810
	C4057	C	0.369790	0.665312	0.249840
	C4058	C	0.277401	0.588145	0.249432
	C4059	C	0.339972	0.650465	0.250542
	C4060	C	0.281086	0.634804	0.499820
	C4061	C	0.343242	0.578990	0.000565
	C4062	C	0.295777	0.642908	0.500099
	C4063	C	0.354502	0.549762	-0.000425
	C4064	C	0.299883	0.597686	0.250374
	C4065	C	0.362477	0.659807	0.250158
	C4066	C	0.285055	0.590918	0.249566
	C4067	C	0.347637	0.653138	0.250442
	C4068	C	0.284815	0.637182	0.583738
	C4069	C	0.346164	0.571621	0.481122
	C4070	C	0.291914	0.641019	0.083327
	C4071	C	0.351514	0.557151	-0.020942
	C4072	C	0.291936	0.641095	0.583714
	C4073	C	0.351630	0.557424	0.481154
	C4074	C	0.284797	0.637156	0.083098
	C4075	C	0.346042	0.571382	-0.020354
	C4076	C	0.296056	0.596142	0.167409
	C4077	C	0.358661	0.658112	0.332565
	C4078	C	0.288945	0.591739	0.332350
	C4079	C	0.351519	0.654128	0.168076
	C4080	C	0.288866	0.592845	0.167040
	C4081	C	0.351468	0.654843	0.332869
	C4082	C	0.296135	0.595070	0.332920
	C4083	C	0.358726	0.657373	0.167964
	N4084	N	0.261727	0.636554	0.450107
	N4085	N	0.328857	0.615651	0.453268
	N4086	N	0.314998	0.645452	0.050199
	N4087	N	0.368528	0.512198	0.046593
	N4088	N	0.315024	0.645598	0.451885
	N4089	N	0.368398	0.512047	0.452127
	N4090	N	0.261696	0.636484	0.047538
	N4091	N	0.328889	0.615690	0.048818
	N4092	N	0.317028	0.616199	0.202737
	N4093	N	0.379553	0.678493	0.201592
	N4094	N	0.266236	0.582907	0.297913
	N4095	N	0.328858	0.644991	0.299204
	N4096	N	0.266266	0.582672	0.200937
	N4097	N	0.328844	0.645087	0.202059
	N4098	N	0.316976	0.616342	0.299253
	N4099	N	0.379561	0.678462	0.298025
	H4100	H	0.269965	0.633465	0.847429
	H4101	H	0.334751	0.600085	0.849902
	H4102	H	0.306704	0.646508	0.653357
	H4103	H	0.362701	0.528094	0.649091
	H4104	H	0.306805	0.647102	0.848090
	H4105	H	0.362590	0.527784	0.850749
	H4106	H	0.269866	0.632912	0.651566
	H4107	H	0.334961	0.600725	0.651706
	H4108	H	0.310437	0.606247	0.598941
	H4109	H	0.372642	0.668996	0.598646
	H4110	H	0.274174	0.586943	0.900806
	H4111	H	0.336744	0.648609	0.901485
	H4112	H	0.274132	0.586489	0.598476
	H4113	H	0.336514	0.649728	0.600178
	H4114	H	0.310187	0.606824	0.902347
	H4115	H	0.372905	0.668501	0.902516
	H4116	H	0.282359	0.634326	0.849377
	H4117	H	0.344246	0.577341	1.037592
	H4118	H	0.294832	0.641019	0.349732
	H4119	H	0.353504	0.551398	0.535724
	H4120	H	0.294830	0.640795	0.849688
	H4121	H	0.353894	0.552178	1.036448
	H4122	H	0.282347	0.634427	0.349688
	H4123	H	0.343855	0.576485	0.535605
	H4124	H	0.298989	0.595762	0.897249
	H4125	H	0.361488	0.658088	0.602683
	H4126	H	0.286133	0.592139	0.601854
	H4127	H	0.348662	0.654055	0.898932
	H4128	H	0.286360	0.590127	0.896705
	H4129	H	0.348854	0.652458	0.602463
	H4130	H	0.298743	0.597726	0.601884
	H4131	H	0.361262	0.659836	0.899251
	Co4132	Co	0.384971	0.694562	0.624654
	Co4133	Co	0.322450	0.632433	0.626124
	Co4134	Co	0.259889	0.570245	0.874803
	Co4135	Co	0.322421	0.632400	0.876301
	C4136	C	0.268655	0.634154	0.921285
	C4137	C	0.333885	0.602614	0.923742
	C4138	C	0.308043	0.646138	0.578639
	C4139	C	0.363553	0.525515	0.576335
	C4140	C	0.308077	0.646313	0.922979
	C4141	C	0.363539	0.525475	0.923484
	C4142	C	0.268628	0.633757	0.576820
	C4143	C	0.334029	0.602882	0.578067
	C4144	C	0.311339	0.608121	0.672905
	C4145	C	0.373739	0.670597	0.673064
	C4146	C	0.272945	0.586201	0.826742
	C4147	C	0.335462	0.648266	0.827943
	C4148	C	0.272927	0.586036	0.672601
	C4149	C	0.335361	0.648792	0.673654
	C4150	C	0.311232	0.608329	0.827570
	C4151	C	0.373837	0.670383	0.828068
	C4152	C	0.273315	0.632709	0.999142
	C4153	C	0.337423	0.593932	0.500869
	C4154	C	0.303388	0.646112	1.000502
	C4155	C	0.360161	0.534504	0.500261
	C4156	C	0.307277	0.603159	0.749985
	C4157	C	0.369753	0.665415	0.750807
	C4158	C	0.277419	0.588299	0.749613
	C4159	C	0.339923	0.650608	0.750629
	C4160	C	0.281061	0.634727	0.999534
	C4161	C	0.343206	0.578922	0.500521
	C4162	C	0.295768	0.642801	1.000045
	C4163	C	0.354443	0.549651	0.500357
	C4164	C	0.299960	0.597599	0.749558
	C4165	C	0.362423	0.659884	0.751041
	C4166	C	0.285100	0.591038	0.749348
	C4167	C	0.347583	0.653330	0.750591
	C4168	C	0.284962	0.636138	0.916213
	C4169	C	0.346231	0.571680	1.021049
	C4170	C	0.292100	0.640092	0.416349
	C4171	C	0.351485	0.556972	0.519934
	C4172	C	0.292096	0.639948	0.916513
	C4173	C	0.351721	0.557483	1.020433
	C4174	C	0.284972	0.636270	0.416364
	C4175	C	0.346016	0.571187	0.519902
	C4176	C	0.296219	0.595054	0.831697
	C4177	C	0.358716	0.657353	0.668169
	C4178	C	0.288900	0.592896	0.667003
	C4179	C	0.351387	0.655093	0.833405
	C4180	C	0.289025	0.591820	0.831637
	C4181	C	0.351512	0.654159	0.668071
	C4182	C	0.296095	0.596116	0.667255
	C4183	C	0.358594	0.658292	0.833734
	N4184	N	0.261704	0.636746	0.949916
	N4185	N	0.328812	0.615512	0.953332
	N4186	N	0.315017	0.645402	0.550099
	N4187	N	0.368456	0.512124	0.547430
	N4188	N	0.315033	0.645554	0.952071
	N4189	N	0.368481	0.512135	0.952026
	N4190	N	0.261688	0.636376	0.547746
	N4191	N	0.328930	0.615794	0.548658
	N4192	N	0.317110	0.616131	0.702386
	N4193	N	0.379536	0.678508	0.701950
	N4194	N	0.266305	0.582845	0.798273
	N4195	N	0.328811	0.645062	0.799612
	N4196	N	0.266319	0.582698	0.701309
	N4197	N	0.328760	0.645359	0.702501
	N4198	N	0.317046	0.616217	0.799185
	N4199	N	0.379580	0.678452	0.798232
	H4200	H	0.264522	0.716717	0.346358
	H4201	H	0.332540	0.695306	0.348552
	H4202	H	0.301408	0.730243	0.152822
	H4203	H	0.369321	0.709106	0.152677
	H4204	H	0.301429	0.730230	0.348336
	H4205	H	0.369325	0.708843	0.347377
	H4206	H	0.264614	0.716467	0.151817
	H4207	H	0.332550	0.695644	0.152656
	H4208	H	0.304073	0.690095	0.098494
	H4209	H	0.366600	0.752560	0.097404
	H4210	H	0.267234	0.673546	0.401327
	H4211	H	0.330020	0.735273	0.403250
	H4212	H	0.267439	0.672771	0.096772
	H4213	H	0.329797	0.735943	0.098850
	H4214	H	0.304016	0.690282	0.403419
	H4215	H	0.366562	0.752559	0.401919
	H4216	H	0.276469	0.722281	0.649485
	H4217	H	0.344746	0.697582	0.350616
	H4218	H	0.289070	0.729150	0.150067
	H4219	H	0.357384	0.703188	0.151012
	H4220	H	0.288963	0.728551	0.650082
	H4221	H	0.357246	0.704047	0.350232
	H4222	H	0.276592	0.722642	0.149965
	H4223	H	0.344864	0.696918	0.150894
	H4224	H	0.292003	0.683485	0.401198
	H4225	H	0.354567	0.745984	0.099209
	H4226	H	0.279290	0.680270	0.099373
	H4227	H	0.341886	0.741829	0.400534
	H4228	H	0.279323	0.678568	0.400536
	H4229	H	0.341850	0.741431	0.099748
	H4230	H	0.291939	0.684952	0.099760
	H4231	H	0.354621	0.746456	0.400288
	Co4232	Co	0.379430	0.775480	0.123625
	Co4233	Co	0.316954	0.712868	0.125908
	Co4234	Co	0.254423	0.650560	0.374647
	Co4235	Co	0.316960	0.712865	0.376590
	C4236	C	0.263214	0.717169	0.420909
	C4237	C	0.331248	0.696209	0.423326
	C4238	C	0.302705	0.729310	0.078234
	C4239	C	0.370650	0.708590	0.077910
	C4240	C	0.302729	0.729428	0.423292
	C4241	C	0.370644	0.708445	0.422407
	C4242	C	0.263306	0.717070	0.077072
	C4243	C	0.331213	0.696491	0.078513
	C4244	C	0.305130	0.691408	0.173487
	C4245	C	0.367655	0.753923	0.172192
	C4246	C	0.266191	0.671997	0.326740
	C4247	C	0.328843	0.734158	0.328713
	C4248	C	0.266291	0.671687	0.171419
	C4249	C	0.328744	0.734411	0.173571
	C4250	C	0.305110	0.691542	0.328439
	C4251	C	0.367651	0.753889	0.326986
	C4252	C	0.267870	0.717204	0.498768
	C4253	C	0.335911	0.695198	0.000896
	C4254	C	0.298001	0.730403	0.500824
	C4255	C	0.365953	0.708250	0.000403
	C4256	C	0.300788	0.687891	0.251038
	C4257	C	0.363358	0.750193	0.249603
	C4258	C	0.270540	0.675436	0.249413
	C4259	C	0.333096	0.737904	0.250928
	C4260	C	0.275474	0.720630	0.499099
	C4261	C	0.343644	0.697080	0.000664
	C4262	C	0.290259	0.728420	0.500131
	C4263	C	0.358355	0.704913	0.000640
	C4264	C	0.293187	0.684369	0.250720
	C4265	C	0.355761	0.746507	0.249770
	C4266	C	0.278140	0.679092	0.250055
	C4267	C	0.340718	0.741405	0.250397
	C4268	C	0.279207	0.723199	0.582818
	C4269	C	0.347445	0.698951	0.417123
	C4270	C	0.286435	0.727281	0.083408
	C4271	C	0.354650	0.702319	0.084213
	C4272	C	0.286365	0.726956	0.583255
	C4273	C	0.354577	0.702719	0.416964
	C4274	C	0.279302	0.723504	0.083280
	C4275	C	0.347503	0.698540	0.084301
	C4276	C	0.289306	0.682693	0.333999
	C4277	C	0.351852	0.745083	0.166335
	C4278	C	0.282017	0.680942	0.166413
	C4279	C	0.344626	0.742725	0.333678
	C4280	C	0.282034	0.680018	0.333980
	C4281	C	0.344571	0.742599	0.166539
	C4282	C	0.289287	0.683477	0.166781
	C4283	C	0.351894	0.745299	0.333562
	N4284	N	0.256281	0.717814	0.449291
	N4285	N	0.324295	0.699086	0.452282
	N4286	N	0.309668	0.726696	0.049961
	N4287	N	0.377594	0.707890	0.048917
	N4288	N	0.309661	0.726830	0.452285
	N4289	N	0.377622	0.707724	0.450727
	N4290	N	0.256349	0.717731	0.047755
	N4291	N	0.324274	0.698963	0.050174
	N4292	N	0.311347	0.697445	0.202332
	N4293	N	0.373870	0.760042	0.201029
	N4294	N	0.259964	0.665981	0.297545
	N4295	N	0.322589	0.728254	0.299897
	N4296	N	0.260030	0.665714	0.200255
	N4297	N	0.322522	0.728391	0.202815
	N4298	N	0.311328	0.697493	0.299683
	N4299	N	0.373862	0.760015	0.298322
	H4300	H	0.264696	0.717152	0.846668
	H4301	H	0.332452	0.695199	0.848856
	H4302	H	0.301387	0.729950	0.653473
	H4303	H	0.369370	0.708980	0.652009
	H4304	H	0.301542	0.730273	0.848487
	H4305	H	0.369245	0.708728	0.847983
	H4306	H	0.264519	0.716253	0.651154
	H4307	H	0.332561	0.695567	0.653503
	H4308	H	0.304077	0.689906	0.598415
	H4309	H	0.366471	0.752588	0.597041
	H4310	H	0.267138	0.673817	0.900960
	H4311	H	0.329953	0.735463	0.902918
	H4312	H	0.267465	0.672907	0.596858
	H4313	H	0.329722	0.735914	0.598755
	H4314	H	0.303983	0.690367	0.902907
	H4315	H	0.366560	0.752257	0.901339
	H4316	H	0.276796	0.720902	0.849181
	H4317	H	0.344702	0.698205	0.850381
	H4318	H	0.289171	0.727412	0.349837
	H4319	H	0.357359	0.703536	0.650543
	H4320	H	0.289321	0.727375	0.849565
	H4321	H	0.357181	0.704637	0.850310
	H4322	H	0.276663	0.721243	0.348821
	H4323	H	0.344868	0.697084	0.651285
	H4324	H	0.291942	0.684911	0.600018
	H4325	H	0.354540	0.746131	0.599011
	H4326	H	0.279387	0.678492	0.900242
	H4327	H	0.341855	0.742062	0.900256
	H4328	H	0.279229	0.680423	0.599248
	H4329	H	0.341838	0.741627	0.599801
	H4330	H	0.292079	0.683262	0.900837
	H4331	H	0.354568	0.746547	0.899662
	Co4332	Co	0.379402	0.775360	0.623852
	Co4333	Co	0.316949	0.712810	0.625431
	Co4334	Co	0.254401	0.650660	0.874237
	Co4335	Co	0.317009	0.712784	0.876801
	C4336	C	0.263342	0.717407	0.921385
	C4337	C	0.331185	0.696172	0.923348
	C4338	C	0.302686	0.729211	0.578943
	C4339	C	0.370662	0.708395	0.577542
	C4340	C	0.302776	0.729526	0.922976
	C4341	C	0.370604	0.708372	0.922254
	C4342	C	0.263215	0.716880	0.576414
	C4343	C	0.331251	0.696351	0.578787
	C4344	C	0.305158	0.691355	0.672905
	C4345	C	0.367607	0.753870	0.671594
	C4346	C	0.266129	0.672280	0.826373
	C4347	C	0.328820	0.734191	0.828488
	C4348	C	0.266304	0.671750	0.671424
	C4349	C	0.328722	0.734351	0.673396
	C4350	C	0.305117	0.691488	0.828255
	C4351	C	0.367667	0.753700	0.826952
	C4352	C	0.267986	0.717426	0.999348
	C4353	C	0.335935	0.694930	0.501052
	C4354	C	0.298071	0.730625	1.000098
	C4355	C	0.365990	0.708262	0.500101
	C4356	C	0.300817	0.687857	0.750516
	C4357	C	0.363330	0.750184	0.749357
	C4358	C	0.270516	0.675655	0.749274
	C4359	C	0.333080	0.737885	0.750567
	C4360	C	0.275619	0.720749	0.999598
	C4361	C	0.343687	0.696897	0.500989
	C4362	C	0.290324	0.728646	0.999690
	C4363	C	0.358358	0.704884	0.500386
	C4364	C	0.293201	0.684221	0.750435
	C4365	C	0.355736	0.746634	0.749489
	C4366	C	0.278122	0.679217	0.749846
	C4367	C	0.340660	0.741563	0.750092
	C4368	C	0.279432	0.722533	0.916017
	C4369	C	0.347410	0.699307	0.916917
	C4370	C	0.286473	0.726292	0.416444
	C4371	C	0.354630	0.702489	0.584002
	C4372	C	0.286578	0.726282	0.915946
	C4373	C	0.354555	0.703063	0.917024
	C4374	C	0.279317	0.722608	0.415745
	C4375	C	0.347512	0.698690	0.584593
	C4376	C	0.289267	0.683389	0.666714
	C4377	C	0.351851	0.745257	0.666076
	C4378	C	0.282067	0.679996	0.833515
	C4379	C	0.344564	0.742959	0.833436
	C4380	C	0.281972	0.680988	0.666272
	C4381	C	0.344569	0.742753	0.666442
	C4382	C	0.289348	0.682451	0.833989
	C4383	C	0.351856	0.745404	0.832971
	N4384	N	0.256381	0.717908	0.949579
	N4385	N	0.324255	0.698762	0.952364
	N4386	N	0.309641	0.726676	0.550125
	N4387	N	0.377621	0.707759	0.548992
	N4388	N	0.309711	0.726782	0.952345
	N4389	N	0.377565	0.707711	0.950725
	N4390	N	0.256259	0.717684	0.547718
	N4391	N	0.324316	0.699170	0.549764
	N4392	N	0.311409	0.697299	0.702157
	N4393	N	0.373852	0.759828	0.700570
	N4394	N	0.259936	0.666132	0.796875
	N4395	N	0.322592	0.728154	0.799918
	N4396	N	0.260044	0.665852	0.699680
	N4397	N	0.322501	0.728326	0.702572
	N4398	N	0.311391	0.697346	0.799431
	N4399	N	0.373889	0.759694	0.797886
	H4400	H	0.268411	0.890393	0.349459
	H4401	H	0.327085	0.778970	0.348716
	H4402	H	0.298418	0.824046	0.150954
	H4403	H	0.363969	0.792846	0.152024
	H4404	H	0.298472	0.824080	0.349293
	H4405	H	0.363937	0.792497	0.347300
	H4406	H	0.268385	0.890268	0.150674
	H4407	H	0.327115	0.779053	0.152149
	H4408	H	0.297328	0.775970	0.098496
	H4409	H	0.359655	0.838746	0.098541
	H4410	H	0.260997	0.756827	0.400761
	H4411	H	0.323565	0.819257	0.401999
	H4412	H	0.261113	0.756624	0.097433
	H4413	H	0.323588	0.818974	0.098505
	H4414	H	0.297096	0.776854	0.400718
	H4415	H	0.359700	0.838729	0.401229
	H4416	H	0.278726	0.870451	0.541975
	H4417	H	0.339069	0.784137	0.350559
	H4418	H	0.288417	0.844980	-0.045402
	H4419	H	0.351678	0.790326	0.150109
	H4420	H	0.289234	0.847556	0.541775
	H4421	H	0.351545	0.790496	0.349630
	H4422	H	0.277945	0.867923	-0.045434
	H4423	H	0.339176	0.783860	0.150017
	H4424	H	0.285191	0.771274	0.397450
	H4425	H	0.347585	0.834672	0.397996
	H4426	H	0.272362	0.767430	0.101971
	H4427	H	0.335029	0.828472	0.102004
	H4428	H	0.272570	0.765389	0.397377
	H4429	H	0.334958	0.828914	0.397605
	H4430	H	0.285025	0.773164	0.101850
	H4431	H	0.347640	0.834258	0.102274
	Co4432	Co	0.373842	0.855890	0.124965
	Co4433	Co	0.311433	0.793242	0.125473
	Co4434	Co	0.248869	0.730839	0.373805
	Co4435	Co	0.311403	0.793212	0.375442
	C4436	C	0.267384	0.892622	0.423073
	C4437	C	0.325751	0.779449	0.423027
	C4438	C	0.299418	0.821825	0.077570
	C4439	C	0.365215	0.791967	0.077363
	C4440	C	0.299435	0.821860	0.422996
	C4441	C	0.365166	0.791798	0.422218
	C4442	C	0.267377	0.892496	0.077190
	C4443	C	0.325782	0.779552	0.077515
	C4444	C	0.298494	0.776797	0.172530
	C4445	C	0.360928	0.839392	0.172588
	C4446	C	0.260024	0.755117	0.326419
	C4447	C	0.322561	0.817440	0.327737
	C4448	C	0.260086	0.754952	0.171407
	C4449	C	0.322556	0.817405	0.172729
	C4450	C	0.298379	0.777219	0.326970
	C4451	C	0.360947	0.839371	0.327408
	C4452	C	0.271034	0.884249	0.500221
	C4453	C	0.330429	0.779783	-0.000379
	C4454	C	0.295755	0.830100	0.500170
	C4455	C	0.360497	0.793172	-0.000136
	C4456	C	0.293945	0.774921	0.249505
	C4457	C	0.356441	0.837310	0.250051
	C4458	C	0.264065	0.760073	0.249143
	C4459	C	0.326594	0.822420	0.250203
	C4460	C	0.277275	0.870483	0.500250
	C4461	C	0.338042	0.783167	-0.000464
	C4462	C	0.289504	0.843805	0.500353
	C4463	C	0.352751	0.791110	0.000047
	C4464	C	0.286244	0.772303	0.249568
	C4465	C	0.348772	0.834505	0.250070
	C4466	C	0.271414	0.765649	0.249617
	C4467	C	0.333919	0.827953	0.249914
	C4468	C	0.280757	0.864698	0.523659
	C4469	C	0.341775	0.785319	0.416986
	C4470	C	0.286246	0.850336	-0.024975
	C4471	C	0.348971	0.789078	0.083455
	C4472	C	0.286696	0.851720	0.523920
	C4473	C	0.348915	0.789054	0.416519
	C4474	C	0.280318	0.863322	-0.025263
	C4475	C	0.341834	0.785310	0.083161
	C4476	C	0.282439	0.770445	0.332168
	C4477	C	0.344898	0.833269	0.332585
	C4478	C	0.275151	0.768178	0.167058
	C4479	C	0.337718	0.829814	0.167440
	C4480	C	0.275255	0.767150	0.332295
	C4481	C	0.337704	0.830040	0.332319
	C4482	C	0.282332	0.771480	0.167136
	C4483	C	0.344911	0.833047	0.167549
	N4484	N	0.262015	0.904764	0.452390
	N4485	N	0.318801	0.780195	0.451647
	N4486	N	0.304833	0.809706	0.048570
	N4487	N	0.372136	0.789254	0.047812
	N4488	N	0.304839	0.809732	0.452398
	N4489	N	0.372111	0.789282	0.451024
	N4490	N	0.261984	0.904582	0.048016
	N4491	N	0.318805	0.780198	0.049077
	N4492	N	0.305125	0.780192	0.201663
	N4493	N	0.367558	0.842804	0.201370
	N4494	N	0.254265	0.747062	0.296906
	N4495	N	0.316778	0.809427	0.298440
	N4496	N	0.254289	0.746964	0.200431
	N4497	N	0.316759	0.809489	0.202149
	N4498	N	0.305045	0.780449	0.298618
	N4499	N	0.367565	0.842780	0.298450
	H4500	H	0.268317	0.890246	0.849476
	H4501	H	0.327084	0.779148	0.847318
	H4502	H	0.298531	0.824238	0.651450
	H4503	H	0.363919	0.792724	0.652589
	H4504	H	0.298436	0.823944	0.850251
	H4505	H	0.363843	0.792753	0.847523
	H4506	H	0.268289	0.890033	0.651258
	H4507	H	0.327056	0.779144	0.652900
	H4508	H	0.297289	0.775893	0.598591
	H4509	H	0.359718	0.838687	0.599261
	H4510	H	0.260974	0.757061	0.901010
	H4511	H	0.323477	0.819431	0.901832
	H4512	H	0.261186	0.756486	0.596921
	H4513	H	0.323576	0.818950	0.598323
	H4514	H	0.297147	0.776614	0.900945
	H4515	H	0.359708	0.838981	0.901377
	H4516	H	0.278420	0.869484	1.047084
	H4517	H	0.339094	0.784452	0.849229
	H4518	H	0.288026	0.843737	0.459224
	H4519	H	0.351604	0.790389	0.650147
	H4520	H	0.288897	0.846515	1.047189
	H4521	H	0.351600	0.790991	0.849997
	H4522	H	0.277575	0.866741	0.458698
	H4523	H	0.339114	0.784093	0.650580
	H4524	H	0.285013	0.772822	0.602422
	H4525	H	0.347543	0.834877	0.602369
	H4526	H	0.272548	0.765920	0.896911
	H4527	H	0.334996	0.828711	0.898591
	H4528	H	0.272377	0.767171	0.602247
	H4529	H	0.334947	0.829227	0.601928
	H4530	H	0.285182	0.771544	0.897215
	H4531	H	0.347588	0.834469	0.898201
	Co4532	Co	0.373852	0.855850	0.624561
	Co4533	Co	0.311360	0.793293	0.625094
	Co4534	Co	0.248917	0.730863	0.873867
	Co4535	Co	0.311385	0.793308	0.875456
	C4536	C	0.267353	0.892457	0.923168
	C4537	C	0.325760	0.779572	0.922068
	C4538	C	0.299450	0.821933	0.577343
	C4539	C	0.365151	0.791865	0.577736
	C4540	C	0.299428	0.821841	0.923854
	C4541	C	0.365173	0.791914	0.921925
	C4542	C	0.267330	0.892435	0.577343
	C4543	C	0.325735	0.779578	0.578531
	C4544	C	0.298470	0.776807	0.672602
	C4545	C	0.360920	0.839458	0.673105
	C4546	C	0.260008	0.755247	0.826602
	C4547	C	0.322511	0.817543	0.827634
	C4548	C	0.260120	0.754869	0.671571
	C4549	C	0.322547	0.817365	0.672911
	C4550	C	0.298403	0.777156	0.826971
	C4551	C	0.360893	0.839626	0.827402
	C4552	C	0.271070	0.884250	1.000167
	C4553	C	0.330392	0.779663	0.500846
	C4554	C	0.295752	0.830090	1.000710
	C4555	C	0.360475	0.792929	0.499941
	C4556	C	0.293933	0.774899	0.749831
	C4557	C	0.356400	0.837425	0.750230
	C4558	C	0.264092	0.760119	0.749249
	C4559	C	0.326560	0.822456	0.750117
	C4560	C	0.277323	0.870544	1.000363
	C4561	C	0.338020	0.783073	0.500746
	C4562	C	0.289512	0.843856	1.000795
	C4563	C	0.352749	0.790916	0.499875
	C4564	C	0.286257	0.772210	0.749916
	C4565	C	0.348723	0.834686	0.750045
	C4566	C	0.271414	0.765638	0.749551
	C4567	C	0.333885	0.828048	0.750351
	C4568	C	0.280585	0.864151	1.026717
	C4569	C	0.341797	0.785573	0.916051
	C4570	C	0.286020	0.849644	0.477028
	C4571	C	0.348926	0.789097	0.583402
	C4572	C	0.286507	0.851137	1.026665
	C4573	C	0.348930	0.789379	0.916464
	C4574	C	0.280080	0.862572	0.477047
	C4575	C	0.341793	0.785360	0.584012
	C4576	C	0.282358	0.771198	0.667557
	C4577	C	0.344846	0.833515	0.667684
	C4578	C	0.275233	0.767379	0.831933
	C4579	C	0.337675	0.830037	0.832878
	C4580	C	0.275147	0.768059	0.667399
	C4581	C	0.337654	0.830272	0.667702
	C4582	C	0.282442	0.770542	0.831946
	C4583	C	0.344870	0.833208	0.832672
	N4584	N	0.261970	0.904562	0.952565
	N4585	N	0.318794	0.780203	0.950716
	N4586	N	0.304850	0.809801	0.547950
	N4587	N	0.372105	0.789327	0.548932
	N4588	N	0.304830	0.809716	0.953060
	N4589	N	0.372122	0.789210	0.950389
	N4590	N	0.261973	0.904631	0.548142
	N4591	N	0.318788	0.780237	0.549609
	N4592	N	0.305085	0.780259	0.701517
	N4593	N	0.367538	0.842877	0.701594
	N4594	N	0.254262	0.747163	0.797069
	N4595	N	0.316719	0.809552	0.798711
	N4596	N	0.254312	0.746978	0.700545
	N4597	N	0.316739	0.809466	0.701968
	N4598	N	0.305037	0.780460	0.798529
	N4599	N	0.367503	0.843042	0.798622
	H4600	H	0.265468	0.984098	0.348168
	H4601	H	0.330877	0.953096	0.349064
	H4602	H	0.302217	0.997430	0.152936
	H4603	H	0.360747	0.886120	0.150618
	H4604	H	0.302175	0.997874	0.348337
	H4605	H	0.360810	0.886456	0.348806
	H4606	H	0.265443	0.983838	0.152285
	H4607	H	0.330756	0.952716	0.150954
	H4608	H	0.305824	0.957494	0.099082
	H4609	H	0.368207	1.020376	0.097823
	H4610	H	0.269559	0.938451	0.401785
	H4611	H	0.332050	1.001085	0.399842
	H4612	H	0.269646	0.937834	0.099058
	H4613	H	0.332071	1.000349	0.099577
	H4614	H	0.305792	0.957907	0.402895
	H4615	H	0.368272	1.020167	0.402148
	H4616	H	0.277721	0.986035	0.350498
	H4617	H	0.340347	0.930533	0.532160
	H4618	H	0.290170	0.992847	-0.150273
	H4619	H	0.351179	0.908303	0.033104
	H4620	H	0.290210	0.992664	0.350536
	H4621	H	0.350779	0.907527	0.531451
	H4622	H	0.277715	0.986284	-0.150128
	H4623	H	0.340690	0.931278	0.033300
	H4624	H	0.294318	0.948314	0.102954
	H4625	H	0.356846	1.010290	0.102087
	H4626	H	0.281723	0.942188	0.399196
	H4627	H	0.344116	1.005314	0.397183
	H4628	H	0.281734	0.942627	0.102564
	H4629	H	0.344214	1.004546	0.101658
	H4630	H	0.294361	0.947935	0.399468
	H4631	H	0.356732	1.010999	0.397874
	Co4632	Co	0.380409	1.046299	0.124331
	Co4633	Co	0.317906	0.983594	0.125368
	Co4634	Co	0.255406	0.921205	0.375165
	Co4635	Co	0.317925	0.983915	0.375342
	C4636	C	0.264124	0.984723	0.422795
	C4637	C	0.329894	0.955249	0.422966
	C4638	C	0.303512	0.997204	0.078315
	C4639	C	0.361825	0.884144	0.077040
	C4640	C	0.303499	0.997520	0.422896
	C4641	C	0.361834	0.884316	0.422427
	C4642	C	0.264163	0.984618	0.077848
	C4643	C	0.329858	0.955070	0.077286
	C4644	C	0.306786	0.959270	0.173730
	C4645	C	0.369237	1.022027	0.172385
	C4646	C	0.268356	0.937541	0.327594
	C4647	C	0.330832	1.000201	0.326730
	C4648	C	0.268422	0.937252	0.173219
	C4649	C	0.330854	0.999827	0.172724
	C4650	C	0.306748	0.959516	0.328417
	C4651	C	0.369259	1.021910	0.327426
	C4652	C	0.268812	0.983591	0.500434
	C4653	C	0.333621	0.947013	0.000355
	C4654	C	0.298859	0.997234	0.500524
	C4655	C	0.358267	0.892690	-0.000071
	C4656	C	0.302756	0.954353	0.251261
	C4657	C	0.365196	1.016966	0.249838
	C4658	C	0.272887	0.939502	0.250656
	C4659	C	0.335345	1.002113	0.249569
	C4660	C	0.276544	0.985727	0.500693
	C4661	C	0.339863	0.933225	0.000494
	C4662	C	0.291246	0.993800	0.500696
	C4663	C	0.352016	0.906447	0.000361
	C4664	C	0.295416	0.948862	0.251404
	C4665	C	0.357873	1.011460	0.249794
	C4666	C	0.280578	0.942293	0.251028
	C4667	C	0.343014	1.004865	0.249417
	C4668	C	0.280362	0.987590	0.417393
	C4669	C	0.342729	0.925822	0.517956
	C4670	C	0.287492	0.991512	-0.083287
	C4671	C	0.348893	0.913296	0.018756
	C4672	C	0.287490	0.991460	0.417243
	C4673	C	0.348667	0.912852	0.517901
	C4674	C	0.280376	0.987693	-0.083377
	C4675	C	0.342986	0.926311	0.018999
	C4676	C	0.291610	0.946980	0.168442
	C4677	C	0.354106	1.009242	0.167325
	C4678	C	0.284433	0.943557	0.333735
	C4679	C	0.346854	1.006434	0.331892
	C4680	C	0.284417	0.943833	0.168361
	C4681	C	0.346899	1.005999	0.166983
	C4682	C	0.291631	0.946725	0.334003
	C4683	C	0.354050	1.009684	0.332090
	N4684	N	0.257181	0.987179	0.451156
	N4685	N	0.324513	0.967402	0.452443
	N4686	N	0.310482	0.996496	0.049763
	N4687	N	0.367217	0.872039	0.047470
	N4688	N	0.310464	0.996767	0.451618
	N4689	N	0.367225	0.872082	0.451509
	N4690	N	0.257213	0.987051	0.049292
	N4691	N	0.324462	0.967178	0.047785
	N4692	N	0.312573	0.967341	0.202705
	N4693	N	0.375001	1.030070	0.201620
	N4694	N	0.261732	0.934125	0.298764
	N4695	N	0.324219	0.996727	0.298266
	N4696	N	0.261790	0.933914	0.201724
	N4697	N	0.324243	0.996499	0.201599
	N4698	N	0.312550	0.967498	0.299262
	N4699	N	0.375031	1.029933	0.298301
	H4700	H	0.265413	0.983659	0.848678
	H4701	H	0.331009	0.953212	0.849309
	H4702	H	0.302156	0.997749	0.653082
	H4703	H	0.361001	0.886792	0.650354
	H4704	H	0.302255	0.997984	0.848538
	H4705	H	0.361123	0.887124	0.848384
	H4706	H	0.265327	0.983732	0.652739
	H4707	H	0.330792	0.952757	0.651642
	H4708	H	0.305732	0.957592	0.599117
	H4709	H	0.368269	1.020257	0.597774
	H4710	H	0.269576	0.938217	0.900873
	H4711	H	0.332061	1.000798	0.902118
	H4712	H	0.269556	0.937944	0.598585
	H4713	H	0.332032	1.000757	0.598833
	H4714	H	0.305808	0.957516	0.902599
	H4715	H	0.368258	1.020195	0.901440
	H4716	H	0.277681	0.986314	1.150924
	H4717	H	0.340755	0.931415	0.967499
	H4718	H	0.290162	0.992813	0.651049
	H4719	H	0.351359	0.908823	0.467728
	H4720	H	0.290129	0.993028	1.150941
	H4721	H	0.351197	0.908478	0.967248
	H4722	H	0.277703	0.986248	0.651011
	H4723	H	0.340858	0.931723	0.468005
	H4724	H	0.294381	0.947670	0.602870
	H4725	H	0.356811	1.010377	0.601909
	H4726	H	0.281673	0.942101	0.898299
	H4727	H	0.344227	1.004990	0.898187
	H4728	H	0.281755	0.942157	0.602270
	H4729	H	0.344223	1.004711	0.602230
	H4730	H	0.294272	0.947801	0.899224
	H4731	H	0.356868	1.010562	0.897421
	Co4732	Co	0.380327	1.046358	0.624647
	Co4733	Co	0.317884	0.983766	0.625151
	Co4734	Co	0.255430	0.921028	0.875117
	Co4735	Co	0.317909	0.983755	0.874754
	C4736	C	0.264142	0.984507	0.922837
	C4737	C	0.329980	0.955321	0.923045
	C4738	C	0.303494	0.997314	0.578444
	C4739	C	0.361918	0.884392	0.576785
	C4740	C	0.303534	0.997416	0.923108
	C4741	C	0.361997	0.884654	0.922550
	C4742	C	0.264091	0.984577	0.578133
	C4743	C	0.329832	0.955111	0.577492
	C4744	C	0.306746	0.959336	0.673194
	C4745	C	0.369210	1.021972	0.672188
	C4746	C	0.268353	0.937433	0.827000
	C4747	C	0.330845	1.000183	0.827486
	C4748	C	0.268365	0.937296	0.672638
	C4749	C	0.330848	1.000129	0.673310
	C4750	C	0.306785	0.959347	0.827948
	C4751	C	0.369215	1.021934	0.827060
	C4752	C	0.268833	0.983503	1.000247
	C4753	C	0.333544	0.946892	0.500267
	C4754	C	0.298857	0.997229	1.000577
	C4755	C	0.358200	0.892573	0.499836
	C4756	C	0.302732	0.954155	0.750793
	C4757	C	0.365226	1.016881	0.749629
	C4758	C	0.272876	0.939519	0.749917
	C4759	C	0.335331	1.002329	0.750608
	C4760	C	0.276560	0.985757	1.000306
	C4761	C	0.339774	0.933051	0.500253
	C4762	C	0.291225	0.993920	1.000423
	C4763	C	0.351960	0.906314	0.500123
	C4764	C	0.295415	0.948608	0.751114
	C4765	C	0.357887	1.011371	0.749812
	C4766	C	0.280546	0.942197	0.750280
	C4767	C	0.343021	1.004912	0.750555
	C4768	C	0.280342	0.987821	1.084147
	C4769	C	0.342992	0.926404	0.982014
	C4770	C	0.287476	0.991491	0.584405
	C4771	C	0.348967	0.913501	0.482231
	C4772	C	0.287446	0.991741	1.084008
	C4773	C	0.348900	0.913387	0.982083
	C4774	C	0.280353	0.987655	0.584248
	C4775	C	0.343047	0.926510	0.482283
	C4776	C	0.291651	0.946579	0.668393
	C4777	C	0.354094	1.009270	0.667470
	C4778	C	0.284389	0.943453	0.832942
	C4779	C	0.346906	1.006219	0.832577
	C4780	C	0.284438	0.943436	0.667975
	C4781	C	0.346896	1.006141	0.667852
	C4782	C	0.291605	0.946582	0.833396
	C4783	C	0.354102	1.009342	0.832366
	N4784	N	0.257196	0.986912	0.951591
	N4785	N	0.324540	0.967355	0.952041
	N4786	N	0.310461	0.996693	0.549667
	N4787	N	0.367277	0.872166	0.547276
	N4788	N	0.310499	0.996629	0.951770
	N4789	N	0.367323	0.872300	0.951868
	N4790	N	0.257157	0.987087	0.548871
	N4791	N	0.324486	0.967298	0.548197
	N4792	N	0.312479	0.967503	0.701979
	N4793	N	0.374979	1.030053	0.701456
	N4794	N	0.261714	0.934092	0.798453
	N4795	N	0.324219	0.996755	0.798984
	N4796	N	0.261733	0.934005	0.701415
	N4797	N	0.324213	0.996743	0.701677
	N4798	N	0.312534	0.967378	0.798602
	N4799	N	0.374980	1.030004	0.798104
	H4800	H	0.390414	0.108669	0.348170
	H4801	H	0.455871	0.078004	0.348032
	H4802	H	0.427199	0.123137	0.151590
	H4803	H	0.485931	0.011548	0.150464
	H4804	H	0.427164	0.122965	0.346686
	H4805	H	0.485896	0.011572	0.348548
	H4806	H	0.390332	0.109267	0.152479
	H4807	H	0.455849	0.078019	0.150161
	H4808	H	0.430606	0.083140	0.097921
	H4809	H	0.493197	0.145442	0.096857
	H4810	H	0.394583	0.063009	0.401497
	H4811	H	0.457053	0.125764	0.400736
	H4812	H	0.394669	0.063021	0.098767
	H4813	H	0.457146	0.125424	0.097312
	H4814	H	0.430816	0.082747	0.402048
	H4815	H	0.493301	0.145185	0.401420
	H4816	H	0.402742	0.111068	0.650368
	H4817	H	0.466075	0.057595	0.462899
	H4818	H	0.415186	0.117554	0.150069
	H4819	H	0.476214	0.033664	-0.061196
	H4820	H	0.415149	0.117860	0.650133
	H4821	H	0.476492	0.034436	0.462722
	H4822	H	0.402670	0.111208	0.150337
	H4823	H	0.465717	0.056540	-0.061014
	H4824	H	0.419396	0.072603	0.102381
	H4825	H	0.481731	0.136232	0.398188
	H4826	H	0.406682	0.067759	0.398901
	H4827	H	0.469336	0.129010	0.101361
	H4828	H	0.406779	0.066891	0.102316
	H4829	H	0.469184	0.130421	0.397857
	H4830	H	0.419297	0.073622	0.398792
	H4831	H	0.481909	0.134882	0.101225
	Co4832	Co	0.505383	0.171292	0.124050
	Co4833	Co	0.442891	0.108838	0.123659
	Co4834	Co	0.380380	0.046253	0.375029
	Co4835	Co	0.442884	0.108865	0.374388
	C4836	C	0.389100	0.109655	0.422753
	C4837	C	0.454876	0.080187	0.421936
	C4838	C	0.428493	0.122575	0.076867
	C4839	C	0.486906	0.009345	0.076964
	C4840	C	0.428484	0.122409	0.421735
	C4841	C	0.486894	0.009408	0.422195
	C4842	C	0.389060	0.109890	0.078142
	C4843	C	0.454839	0.080191	0.076407
	C4844	C	0.431681	0.084724	0.172366
	C4845	C	0.494218	0.147141	0.172009
	C4846	C	0.393389	0.062333	0.327414
	C4847	C	0.455876	0.125092	0.326285
	C4848	C	0.393416	0.062373	0.173075
	C4849	C	0.455909	0.124928	0.171611
	C4850	C	0.431778	0.084526	0.327329
	C4851	C	0.494257	0.146998	0.327277
	C4852	C	0.393789	0.108700	0.500110
	C4853	C	0.458487	0.071803	-0.000445
	C4854	C	0.423851	0.122277	0.499417
	C4855	C	0.483218	0.017669	-0.000098
	C4856	C	0.427728	0.079539	0.250217
	C4857	C	0.490219	0.141986	0.249579
	C4858	C	0.397902	0.064485	0.250447
	C4859	C	0.460403	0.127106	0.248920
	C4860	C	0.401514	0.110918	0.499921
	C4861	C	0.464740	0.058098	0.000048
	C4862	C	0.416223	0.118961	0.499517
	C4863	C	0.476970	0.031441	0.000106
	C4864	C	0.420409	0.073946	0.250545
	C4865	C	0.482919	0.136423	0.249699
	C4866	C	0.405573	0.067242	0.250525
	C4867	C	0.468067	0.129788	0.249238
	C4868	C	0.405356	0.112675	0.583529
	C4869	C	0.468128	0.051904	0.478544
	C4870	C	0.412469	0.116462	0.083293
	C4871	C	0.473890	0.038463	-0.034419
	C4872	C	0.412484	0.116518	0.583349
	C4873	C	0.474054	0.038917	0.478649
	C4874	C	0.405353	0.112609	0.083577
	C4875	C	0.467944	0.051404	-0.034417
	C4876	C	0.416649	0.071658	0.167847
	C4877	C	0.479095	0.134687	0.332246
	C4878	C	0.409404	0.068861	0.333402
	C4879	C	0.471990	0.130720	0.166965
	C4880	C	0.409457	0.068399	0.167835
	C4881	C	0.471895	0.131461	0.332081
	C4882	C	0.416598	0.072141	0.333324
	C4883	C	0.479181	0.133997	0.167051
	N4884	N	0.382147	0.112043	0.451309
	N4885	N	0.449473	0.092314	0.451336
	N4886	N	0.435464	0.121866	0.047937
	N4887	N	0.492290	-0.002724	0.047437
	N4888	N	0.435439	0.121694	0.450081
	N4889	N	0.492310	-0.002620	0.451635
	N4890	N	0.382102	0.112169	0.049162
	N4891	N	0.449433	0.092291	0.046857
	N4892	N	0.437466	0.092745	0.201157
	N4893	N	0.499993	0.155111	0.201130
	N4894	N	0.386791	0.058900	0.298301
	N4895	N	0.449244	0.121778	0.297569
	N4896	N	0.386790	0.058989	0.201393
	N4897	N	0.449278	0.121658	0.200258
	N4898	N	0.437520	0.092640	0.297515
	N4899	N	0.500016	0.155026	0.297779
	H4900	H	0.390357	0.108893	0.848508
	H4901	H	0.455694	0.077288	0.848725
	H4902	H	0.427239	0.122803	0.652062
	H4903	H	0.486016	0.011953	0.650410
	H4904	H	0.427149	0.122878	0.846958
	H4905	H	0.485938	0.011828	0.848899
	H4906	H	0.390341	0.109043	0.652904
	H4907	H	0.455844	0.077659	0.649988
	H4908	H	0.430688	0.082822	0.597156
	H4909	H	0.493171	0.145449	0.598109
	H4910	H	0.394545	0.063043	0.900703
	H4911	H	0.457030	0.125338	0.900308
	H4912	H	0.394553	0.062972	0.598246
	H4913	H	0.457061	0.125448	0.598342
	H4914	H	0.430773	0.082471	0.900720
	H4915	H	0.493208	0.145137	0.901966
	H4916	H	0.402575	0.111724	0.849900
	H4917	H	0.465512	0.055822	1.061510
	H4918	H	0.415119	0.118208	0.349277
	H4919	H	0.475709	0.031926	0.535926
	H4920	H	0.415082	0.118104	0.849576
	H4921	H	0.476029	0.033106	1.061520
	H4922	H	0.402613	0.111606	0.349676
	H4923	H	0.465282	0.055016	0.535413
	H4924	H	0.419321	0.072761	0.601798
	H4925	H	0.481770	0.135316	0.601376
	H4926	H	0.406624	0.067588	0.897481
	H4927	H	0.469087	0.130215	0.898101
	H4928	H	0.406699	0.067049	0.601602
	H4929	H	0.469196	0.129397	0.601390
	H4930	H	0.419261	0.073432	0.897456
	H4931	H	0.481686	0.135998	0.898084
	Co4932	Co	0.505362	0.171199	0.624384
	Co4933	Co	0.442854	0.108593	0.623939
	Co4934	Co	0.380356	0.046218	0.874699
	Co4935	Co	0.442829	0.108612	0.874001
	C4936	C	0.389062	0.109790	0.922919
	C4937	C	0.454754	0.079831	0.922443
	C4938	C	0.428519	0.122467	0.577276
	C4939	C	0.486955	0.009606	0.576503
	C4940	C	0.428461	0.122388	0.921426
	C4941	C	0.486921	0.009486	0.922783
	C4942	C	0.389095	0.109743	0.577961
	C4943	C	0.454849	0.080007	0.576358
	C4944	C	0.431716	0.084359	0.671677
	C4945	C	0.494153	0.147106	0.671958
	C4946	C	0.393359	0.062362	0.826766
	C4947	C	0.455814	0.124759	0.826651
	C4948	C	0.393350	0.062332	0.672368
	C4949	C	0.455832	0.124768	0.672342
	C4950	C	0.431724	0.084305	0.826487
	C4951	C	0.494197	0.146905	0.827109
	C4952	C	0.393748	0.108834	1.000377
	C4953	C	0.458530	0.071853	0.499018
	C4954	C	0.423821	0.122349	0.999246
	C4955	C	0.483225	0.017729	0.499316
	C4956	C	0.427710	0.079272	0.749184
	C4957	C	0.490142	0.141959	0.749472
	C4958	C	0.397854	0.064450	0.749642
	C4959	C	0.460313	0.126943	0.749652
	C4960	C	0.401504	0.110888	1.000063
	C4961	C	0.464778	0.058094	0.498981
	C4962	C	0.416213	0.118903	0.999643
	C4963	C	0.476961	0.031382	0.499324
	C4964	C	0.420358	0.073805	0.749451
	C4965	C	0.482825	0.136428	0.749683
	C4966	C	0.405532	0.067223	0.749560
	C4967	C	0.467969	0.129745	0.749621
	C4968	C	0.405292	0.112915	0.916589
	C4969	C	0.467845	0.051091	1.034467
	C4970	C	0.412426	0.116845	0.416017
	C4971	C	0.473628	0.037557	0.519987
	C4972	C	0.412409	0.116829	0.916348
	C4973	C	0.473786	0.038117	1.034691
	C4974	C	0.405283	0.113069	0.416246
	C4975	C	0.467702	0.050544	0.519649
	C4976	C	0.416585	0.071635	0.666973
	C4977	C	0.479059	0.134191	0.667138
	C4978	C	0.409366	0.068816	0.832075
	C4979	C	0.471810	0.131367	0.832418
	C4980	C	0.409397	0.068399	0.666934
	C4981	C	0.471868	0.130937	0.667051
	C4982	C	0.416555	0.072035	0.832070
	C4983	C	0.479008	0.134624	0.832371
	N4984	N	0.382098	0.112138	0.951763
	N4985	N	0.449375	0.092070	0.951340
	N4986	N	0.435476	0.121724	0.548404
	N4987	N	0.492337	-0.002506	0.547256
	N4988	N	0.435421	0.121706	0.949696
	N4989	N	0.492304	-0.002633	0.951927
	N4990	N	0.382142	0.112103	0.549061
	N4991	N	0.449453	0.092154	0.547255
	N4992	N	0.437516	0.092328	0.700871
	N4993	N	0.499921	0.155083	0.701376
	N4994	N	0.386719	0.059060	0.798163
	N4995	N	0.449190	0.121443	0.797830
	N4996	N	0.386709	0.059092	0.701100
	N4997	N	0.449209	0.121415	0.700739
	N4998	N	0.437509	0.092335	0.797272
	N4999	N	0.499979	0.154862	0.797880
	H5000	H	0.384539	0.196470	0.348046
	H5001	H	0.452877	0.171404	0.347774
	H5002	H	0.421723	0.206187	0.152026
	H5003	H	0.489643	0.185445	0.151645
	H5004	H	0.421800	0.205700	0.347445
	H5005	H	0.489678	0.185214	0.346711
	H5006	H	0.384505	0.196703	0.152977
	H5007	H	0.452879	0.171356	0.152177
	H5008	H	0.424250	0.166179	0.097805
	H5009	H	0.486761	0.228817	0.097019
	H5010	H	0.387627	0.149287	0.401532
	H5011	H	0.450070	0.211959	0.401536
	H5012	H	0.387539	0.149478	0.097641
	H5013	H	0.450135	0.211578	0.097454
	H5014	H	0.424336	0.165768	0.402588
	H5015	H	0.486952	0.227991	0.401319
	H5016	H	0.396762	0.198964	0.349116
	H5017	H	0.465219	0.173704	0.649905
	H5018	H	0.409444	0.203330	0.151402
	H5019	H	0.477787	0.179430	0.149107
	H5020	H	0.409427	0.203940	0.348439
	H5021	H	0.477716	0.180123	0.649710
	H5022	H	0.396806	0.198327	0.151251
	H5023	H	0.465270	0.173035	0.149761
	H5024	H	0.412349	0.159596	0.098910
	H5025	H	0.474895	0.221675	0.099032
	H5026	H	0.399516	0.156231	0.399995
	H5027	H	0.461995	0.218989	0.400170
	H5028	H	0.399624	0.155361	0.098783
	H5029	H	0.462166	0.217296	0.099197
	H5030	H	0.412244	0.160691	0.400275
	H5031	H	0.474762	0.223147	0.400416
	Co5032	Co	0.499738	0.251345	0.124547
	Co5033	Co	0.437318	0.188486	0.124236
	Co5034	Co	0.374844	0.125871	0.375723
	Co5035	Co	0.437314	0.188500	0.375524
	C5036	C	0.383236	0.197450	0.422694
	C5037	C	0.451600	0.172278	0.422399
	C5038	C	0.423020	0.204985	0.077787
	C5039	C	0.491002	0.184937	0.076798
	C5040	C	0.423070	0.204868	0.422150
	C5041	C	0.491008	0.184858	0.421273
	C5042	C	0.383212	0.197476	0.077902
	C5043	C	0.451597	0.172038	0.077424
	C5044	C	0.425404	0.167422	0.172279
	C5045	C	0.487861	0.229912	0.171604
	C5046	C	0.386537	0.147775	0.326852
	C5047	C	0.449019	0.210471	0.327019
	C5048	C	0.386490	0.147998	0.172087
	C5049	C	0.449056	0.210265	0.172035
	C5050	C	0.425442	0.167186	0.327686
	C5051	C	0.487978	0.229487	0.326752
	C5052	C	0.387937	0.196372	0.500514
	C5053	C	0.456296	0.170988	-0.000052
	C5054	C	0.418375	0.206077	0.499798
	C5055	C	0.486358	0.184647	-0.000775
	C5056	C	0.421092	0.163817	0.250127
	C5057	C	0.483606	0.226177	0.249433
	C5058	C	0.390796	0.151741	0.249619
	C5059	C	0.453313	0.214202	0.249552
	C5060	C	0.395691	0.198227	0.500378
	C5061	C	0.464033	0.173040	-0.000423
	C5062	C	0.410598	0.204362	0.499823
	C5063	C	0.478744	0.181208	-0.000807
	C5064	C	0.413469	0.160402	0.249877
	C5065	C	0.475996	0.222713	0.249747
	C5066	C	0.398378	0.155490	0.249575
	C5067	C	0.460914	0.217893	0.249550
	C5068	C	0.399498	0.199913	0.416072
	C5069	C	0.467875	0.175287	0.583197
	C5070	C	0.406729	0.202477	0.084258
	C5071	C	0.475034	0.178497	0.082703
	C5072	C	0.406727	0.202865	0.415664
	C5073	C	0.475009	0.179059	0.582900
	C5074	C	0.399501	0.199509	0.084254
	C5075	C	0.467904	0.174649	0.083066
	C5076	C	0.409605	0.158879	0.165848
	C5077	C	0.472138	0.221039	0.165949
	C5078	C	0.402248	0.157044	0.333273
	C5079	C	0.464764	0.219610	0.333435
	C5080	C	0.402303	0.156525	0.165742
	C5081	C	0.464863	0.218603	0.165957
	C5082	C	0.409537	0.159504	0.333442
	C5083	C	0.472053	0.221960	0.333520
	N5084	N	0.376297	0.200193	0.451754
	N5085	N	0.444654	0.174693	0.451275
	N5086	N	0.429967	0.202294	0.048751
	N5087	N	0.497972	0.184336	0.048433
	N5088	N	0.430029	0.202306	0.450925
	N5089	N	0.497977	0.184244	0.450185
	N5090	N	0.376278	0.200083	0.049207
	N5091	N	0.444654	0.174620	0.048687
	N5092	N	0.431703	0.173086	0.201215
	N5093	N	0.494124	0.235776	0.200394
	N5094	N	0.380365	0.141508	0.298406
	N5095	N	0.442855	0.204142	0.298444
	N5096	N	0.380336	0.141612	0.201153
	N5097	N	0.442883	0.204004	0.201053
	N5098	N	0.431682	0.173128	0.298508
	N5099	N	0.494221	0.235418	0.297619
	H5100	H	0.384463	0.196632	0.847666
	H5101	H	0.452855	0.171453	0.847472
	H5102	H	0.421845	0.205999	0.651762
	H5103	H	0.489665	0.185555	0.651460
	H5104	H	0.421713	0.205480	0.847864
	H5105	H	0.489691	0.185203	0.846703
	H5106	H	0.384552	0.196706	0.652625
	H5107	H	0.452928	0.171640	0.652096
	H5108	H	0.424217	0.166306	0.597423
	H5109	H	0.486741	0.228441	0.596811
	H5110	H	0.387583	0.149104	0.901688
	H5111	H	0.450028	0.211735	0.901651
	H5112	H	0.387470	0.149575	0.598028
	H5113	H	0.449973	0.212220	0.597703
	H5114	H	0.424355	0.165742	0.902197
	H5115	H	0.486756	0.228167	0.901750
	H5116	H	0.396775	0.199204	0.849142
	H5117	H	0.465106	0.174346	0.848975
	H5118	H	0.409553	0.203202	0.650863
	H5119	H	0.477542	0.181062	0.348467
	H5120	H	0.409391	0.204222	0.848934
	H5121	H	0.477533	0.180912	0.848517
	H5122	H	0.396891	0.198218	0.651528
	H5123	H	0.465078	0.174522	0.349550
	H5124	H	0.412221	0.159964	0.599295
	H5125	H	0.474666	0.222967	0.900926
	H5126	H	0.399393	0.156539	0.900374
	H5127	H	0.461982	0.217861	0.598710
	H5128	H	0.399510	0.155531	0.598866
	H5129	H	0.461927	0.218885	0.900264
	H5130	H	0.412085	0.160945	0.900767
	H5131	H	0.474703	0.222346	0.598851
	Co5132	Co	0.499834	0.250704	0.623895
	Co5133	Co	0.437316	0.188273	0.624187
	Co5134	Co	0.374757	0.125917	0.876175
	Co5135	Co	0.437308	0.188268	0.875315
	C5136	C	0.383202	0.197400	0.922357
	C5137	C	0.451610	0.172160	0.922134
	C5138	C	0.423094	0.204910	0.577196
	C5139	C	0.491009	0.185039	0.576969
	C5140	C	0.423018	0.204787	0.922330
	C5141	C	0.491005	0.184878	0.921363
	C5142	C	0.383260	0.197551	0.578279
	C5143	C	0.451625	0.172326	0.577477
	C5144	C	0.425328	0.167393	0.672489
	C5145	C	0.487879	0.229615	0.671647
	C5146	C	0.386488	0.147785	0.827720
	C5147	C	0.448950	0.210343	0.827217
	C5148	C	0.386421	0.147945	0.672584
	C5149	C	0.448926	0.210563	0.672118
	C5150	C	0.425409	0.167115	0.827573
	C5151	C	0.487843	0.229684	0.827029
	C5152	C	0.387902	0.196308	1.000092
	C5153	C	0.456303	0.171314	0.499964
	C5154	C	0.418332	0.206031	1.000040
	C5155	C	0.486360	0.184747	0.499184
	C5156	C	0.421022	0.163827	0.750126
	C5157	C	0.483511	0.226184	0.749250
	C5158	C	0.390713	0.151726	0.750051
	C5159	C	0.453210	0.214426	0.749833
	C5160	C	0.395668	0.198011	1.000143
	C5161	C	0.464038	0.173466	0.499762
	C5162	C	0.410566	0.204288	1.000208
	C5163	C	0.478742	0.181464	0.499266
	C5164	C	0.413378	0.160539	0.750123
	C5165	C	0.475876	0.222840	0.749650
	C5166	C	0.398293	0.155599	0.749776
	C5167	C	0.460788	0.218090	0.749516
	C5168	C	0.399498	0.199950	0.916244
	C5169	C	0.467804	0.175371	0.915741
	C5170	C	0.406788	0.202460	0.583921
	C5171	C	0.474929	0.179512	0.415709
	C5172	C	0.406720	0.202942	0.916022
	C5173	C	0.474913	0.179308	0.915511
	C5174	C	0.399558	0.199559	0.584373
	C5175	C	0.467814	0.175650	0.415987
	C5176	C	0.409493	0.159133	0.666222
	C5177	C	0.471989	0.221851	0.833637
	C5178	C	0.402139	0.157258	0.833605
	C5179	C	0.464673	0.219095	0.665626
	C5180	C	0.402204	0.156714	0.665880
	C5181	C	0.464685	0.219551	0.833272
	C5182	C	0.409432	0.159660	0.833764
	C5183	C	0.471975	0.221503	0.665822
	N5184	N	0.376270	0.200052	0.951498
	N5185	N	0.444669	0.174720	0.951007
	N5186	N	0.430036	0.202242	0.548475
	N5187	N	0.497983	0.184348	0.548427
	N5188	N	0.429954	0.202120	0.951187
	N5189	N	0.497977	0.184246	0.950158
	N5190	N	0.376326	0.200245	0.549236
	N5191	N	0.444684	0.174697	0.548895
	N5192	N	0.431604	0.173120	0.701198
	N5193	N	0.494145	0.235416	0.700820
	N5194	N	0.380306	0.141464	0.798804
	N5195	N	0.442812	0.203935	0.798086
	N5196	N	0.380258	0.141544	0.701676
	N5197	N	0.442811	0.204005	0.701078
	N5198	N	0.431678	0.172900	0.798594
	N5199	N	0.494135	0.235395	0.798180
	H5200	H	0.379049	0.279469	0.347785
	H5201	H	0.446992	0.258771	0.347838
	H5202	H	0.415847	0.293800	0.152464
	H5203	H	0.484219	0.268520	0.151495
	H5204	H	0.415866	0.293387	0.348156
	H5205	H	0.484341	0.268156	0.348116
	H5206	H	0.379097	0.279633	0.153685
	H5207	H	0.446959	0.258980	0.152237
	H5208	H	0.418508	0.253805	0.097775
	H5209	H	0.481196	0.315711	0.097006
	H5210	H	0.381963	0.236436	0.402655
	H5211	H	0.444528	0.298595	0.402291
	H5212	H	0.381972	0.236583	0.097922
	H5213	H	0.444499	0.299171	0.098144
	H5214	H	0.418901	0.252345	0.401814
	H5215	H	0.481357	0.315041	0.401603
	H5216	H	0.391235	0.283970	0.651236
	H5217	H	0.459311	0.261650	0.348468
	H5218	H	0.403665	0.290392	0.150949
	H5219	H	0.471974	0.265618	0.149993
	H5220	H	0.403764	0.290284	0.650535
	H5221	H	0.471971	0.266732	0.348809
	H5222	H	0.391202	0.283778	0.151209
	H5223	H	0.459310	0.260560	0.150862
	H5224	H	0.406752	0.247045	0.401693
	H5225	H	0.469252	0.309665	0.400499
	H5226	H	0.394100	0.241636	0.099720
	H5227	H	0.456592	0.304171	0.099563
	H5228	H	0.393978	0.242884	0.401642
	H5229	H	0.456532	0.305359	0.401183
	H5230	H	0.406836	0.245959	0.100007
	H5231	H	0.469362	0.308265	0.099119
	Co5232	Co	0.493976	0.339185	0.124425
	Co5233	Co	0.431443	0.276781	0.124356
	Co5234	Co	0.368953	0.213972	0.375777
	Co5235	Co	0.431485	0.276364	0.375356
	C5236	C	0.377753	0.279973	0.423141
	C5237	C	0.445734	0.259765	0.422246
	C5238	C	0.417123	0.292888	0.077984
	C5239	C	0.485470	0.267643	0.076841
	C5240	C	0.417193	0.292523	0.422474
	C5241	C	0.485590	0.267209	0.422218
	C5242	C	0.377762	0.279978	0.078767
	C5243	C	0.445688	0.259894	0.077782
	C5244	C	0.419672	0.254946	0.172077
	C5245	C	0.482308	0.317015	0.171724
	C5246	C	0.380884	0.235121	0.328135
	C5247	C	0.443438	0.297438	0.327514
	C5248	C	0.380889	0.235185	0.172790
	C5249	C	0.443420	0.297713	0.172477
	C5250	C	0.419850	0.254327	0.327161
	C5251	C	0.482381	0.316626	0.326854
	C5252	C	0.382445	0.280223	0.500815
	C5253	C	0.450367	0.258648	0.000085
	C5254	C	0.412523	0.293557	0.500459
	C5255	C	0.480783	0.268544	-0.000898
	C5256	C	0.415510	0.250715	0.250116
	C5257	C	0.478090	0.312908	0.249307
	C5258	C	0.385210	0.238741	0.250709
	C5259	C	0.447748	0.301082	0.250249
	C5260	C	0.390050	0.283613	0.500874
	C5261	C	0.458130	0.260359	-0.000114
	C5262	C	0.404787	0.291423	0.500668
	C5263	C	0.473024	0.266674	-0.000882
	C5264	C	0.407933	0.246978	0.250793
	C5265	C	0.470493	0.309199	0.249750
	C5266	C	0.392865	0.242072	0.250768
	C5267	C	0.455380	0.304489	0.250305
	C5268	C	0.393861	0.285551	0.584319
	C5269	C	0.462026	0.262524	0.415543
	C5270	C	0.400942	0.289221	0.084372
	C5271	C	0.469223	0.264772	0.083266
	C5272	C	0.401019	0.289244	0.584286
	C5273	C	0.469254	0.265535	0.415671
	C5274	C	0.393819	0.285366	0.084314
	C5275	C	0.461997	0.261764	0.083805
	C5276	C	0.404045	0.245896	0.334737
	C5277	C	0.466554	0.308370	0.333645
	C5278	C	0.396800	0.242905	0.166721
	C5279	C	0.459316	0.305306	0.166451
	C5280	C	0.396750	0.243479	0.334751
	C5281	C	0.459262	0.306016	0.334008
	C5282	C	0.404078	0.245386	0.166816
	C5283	C	0.466619	0.307586	0.166114
	N5284	N	0.370811	0.280598	0.451727
	N5285	N	0.438797	0.262556	0.451557
	N5286	N	0.424061	0.290418	0.048810
	N5287	N	0.492419	0.264946	0.048010
	N5288	N	0.424163	0.290120	0.451058
	N5289	N	0.492518	0.264419	0.450991
	N5290	N	0.370809	0.280752	0.050330
	N5291	N	0.438750	0.262714	0.049143
	N5292	N	0.425863	0.261234	0.200879
	N5293	N	0.488468	0.323406	0.200834
	N5294	N	0.374628	0.229269	0.299131
	N5295	N	0.437167	0.291715	0.298459
	N5296	N	0.374645	0.229260	0.201820
	N5297	N	0.437145	0.291947	0.201084
	N5298	N	0.425975	0.260832	0.297863
	N5299	N	0.488512	0.323182	0.297967
	H5300	H	0.379083	0.279703	0.848534
	H5301	H	0.446896	0.259032	0.847859
	H5302	H	0.415929	0.293274	0.652430
	H5303	H	0.484328	0.268293	0.652104
	H5304	H	0.415798	0.293135	0.847877
	H5305	H	0.484174	0.268006	0.846524
	H5306	H	0.379100	0.279461	0.652958
	H5307	H	0.447109	0.259383	0.652705
	H5308	H	0.418659	0.253372	0.597660
	H5309	H	0.481133	0.315587	0.598235
	H5310	H	0.382045	0.236391	0.902739
	H5311	H	0.444429	0.298830	0.902486
	H5312	H	0.381946	0.236783	0.598309
	H5313	H	0.444400	0.299225	0.597829
	H5314	H	0.418748	0.252782	0.901801
	H5315	H	0.481172	0.315352	0.902292
	H5316	H	0.391003	0.285178	0.850192
	H5317	H	0.459156	0.261359	0.848959
	H5318	H	0.403560	0.291534	0.350583
	H5319	H	0.472048	0.265972	0.650590
	H5320	H	0.403470	0.291830	0.850621
	H5321	H	0.471827	0.266422	0.848205
	H5322	H	0.391072	0.285260	0.350421
	H5323	H	0.459357	0.260933	0.650728
	H5324	H	0.406690	0.247170	0.900430
	H5325	H	0.469259	0.308561	0.599680
	H5326	H	0.394069	0.241663	0.599205
	H5327	H	0.456405	0.305082	0.901215
	H5328	H	0.393936	0.243148	0.900312
	H5329	H	0.456532	0.304215	0.599223
	H5330	H	0.406774	0.245891	0.599153
	H5331	H	0.469116	0.309687	0.901818
	Co5332	Co	0.493985	0.338794	0.624541
	Co5333	Co	0.431477	0.276420	0.624500
	Co5334	Co	0.368965	0.213986	0.876160
	Co5335	Co	0.431410	0.276583	0.875640
	C5336	C	0.377761	0.279984	0.922997
	C5337	C	0.445658	0.259905	0.922717
	C5338	C	0.417237	0.292593	0.577814
	C5339	C	0.485582	0.267339	0.577437
	C5340	C	0.417091	0.292589	0.922536
	C5341	C	0.485475	0.267326	0.921476
	C5342	C	0.377769	0.279947	0.578508
	C5343	C	0.445782	0.260128	0.577764
	C5344	C	0.419746	0.254576	0.672423
	C5345	C	0.482214	0.316965	0.672750
	C5346	C	0.380900	0.235085	0.828016
	C5347	C	0.443323	0.297593	0.827910
	C5348	C	0.380840	0.235348	0.672678
	C5349	C	0.443297	0.297757	0.672565
	C5350	C	0.419767	0.254439	0.827500
	C5351	C	0.482239	0.316908	0.827915
	C5352	C	0.382411	0.280103	1.000947
	C5353	C	0.450451	0.258806	0.499749
	C5354	C	0.412418	0.293709	1.000474
	C5355	C	0.480893	0.268539	0.499847
	C5356	C	0.415497	0.250575	0.750048
	C5357	C	0.477939	0.313124	0.750446
	C5358	C	0.385194	0.238770	0.750275
	C5359	C	0.447656	0.301138	0.750166
	C5360	C	0.390014	0.283421	1.000817
	C5361	C	0.458212	0.260587	0.499487
	C5362	C	0.404687	0.291558	1.000812
	C5363	C	0.473114	0.266923	0.499763
	C5364	C	0.407918	0.246894	0.749932
	C5365	C	0.470360	0.309427	0.750721
	C5366	C	0.392823	0.242203	0.750027
	C5367	C	0.455287	0.304472	0.750088
	C5368	C	0.393704	0.286197	0.917170
	C5369	C	0.461922	0.262223	0.915741
	C5370	C	0.400934	0.289837	0.417145
	C5371	C	0.469291	0.265069	0.583769
	C5372	C	0.400824	0.290080	0.917134
	C5373	C	0.469145	0.265211	0.915320
	C5374	C	0.393787	0.286109	0.417317
	C5375	C	0.462069	0.262050	0.583623
	C5376	C	0.403995	0.245997	0.833505
	C5377	C	0.466514	0.307808	0.666791
	C5378	C	0.396750	0.242936	0.666220
	C5379	C	0.459161	0.305870	0.834282
	C5380	C	0.396689	0.243720	0.833527
	C5381	C	0.459214	0.305414	0.666382
	C5382	C	0.404045	0.245299	0.666195
	C5383	C	0.466448	0.308393	0.834665
	N5384	N	0.370805	0.280735	0.952110
	N5385	N	0.438725	0.262693	0.951741
	N5386	N	0.424186	0.290154	0.548529
	N5387	N	0.492514	0.264536	0.548469
	N5388	N	0.424041	0.290258	0.951367
	N5389	N	0.492430	0.264787	0.950271
	N5390	N	0.370823	0.280604	0.550091
	N5391	N	0.438830	0.262734	0.549181
	N5392	N	0.425907	0.260901	0.701277
	N5393	N	0.488377	0.323235	0.701423
	N5394	N	0.374634	0.229265	0.799038
	N5395	N	0.437027	0.291884	0.798695
	N5396	N	0.374592	0.229372	0.701930
	N5397	N	0.437030	0.291912	0.701339
	N5398	N	0.425894	0.260946	0.798657
	N5399	N	0.488383	0.323254	0.798728
	H5400	H	0.385888	0.461145	0.350664
	H5401	H	0.441522	0.341769	0.348039
	H5402	H	0.413418	0.388351	0.151147
	H5403	H	0.478487	0.356060	0.152800
	H5404	H	0.413638	0.388519	0.349478
	H5405	H	0.478432	0.355541	0.347269
	H5406	H	0.385571	0.460373	0.148733
	H5407	H	0.441619	0.342060	0.152083
	H5408	H	0.411649	0.339675	0.099026
	H5409	H	0.474227	0.401591	0.099431
	H5410	H	0.375524	0.319788	0.403265
	H5411	H	0.438105	0.381808	0.402332
	H5412	H	0.375486	0.319628	0.098714
	H5413	H	0.437990	0.382293	0.098605
	H5414	H	0.411676	0.339270	0.401035
	H5415	H	0.474198	0.401852	0.402350
	H5416	H	0.394938	0.437468	0.410511
	H5417	H	0.453594	0.347490	0.349843
	H5418	H	0.404472	0.412062	-0.068055
	H5419	H	0.466120	0.353731	-0.150419
	H5420	H	0.404613	0.412406	0.411129
	H5421	H	0.466079	0.353853	0.349428
	H5422	H	0.394801	0.437188	-0.068089
	H5423	H	0.453591	0.347313	-0.150754
	H5424	H	0.399646	0.333987	0.101944
	H5425	H	0.462189	0.396656	0.102468
	H5426	H	0.386828	0.330554	0.398407
	H5427	H	0.449437	0.392248	0.398562
	H5428	H	0.387025	0.328396	0.101775
	H5429	H	0.449576	0.390874	0.102672
	H5430	H	0.399470	0.336316	0.398173
	H5431	H	0.462023	0.398097	0.398106
	Co5432	Co	0.488456	0.418252	0.125693
	Co5433	Co	0.425963	0.356176	0.125340
	Co5434	Co	0.363394	0.293711	0.376120
	Co5435	Co	0.425911	0.356024	0.375733
	C5436	C	0.384900	0.463242	0.423533
	C5437	C	0.440279	0.342271	0.422629
	C5438	C	0.414368	0.385882	0.077243
	C5439	C	0.479738	0.355182	0.077603
	C5440	C	0.414475	0.385989	0.423252
	C5441	C	0.479703	0.354805	0.422472
	C5442	C	0.384721	0.462936	0.075811
	C5443	C	0.440320	0.342493	0.077462
	C5444	C	0.412861	0.340247	0.173158
	C5445	C	0.475449	0.402208	0.173301
	C5446	C	0.374543	0.318000	0.328409
	C5447	C	0.437097	0.380197	0.328043
	C5448	C	0.374506	0.318011	0.173245
	C5449	C	0.437044	0.380465	0.173146
	C5450	C	0.412891	0.340037	0.327211
	C5451	C	0.475433	0.402304	0.327943
	C5452	C	0.388122	0.453914	0.499672
	C5453	C	0.444947	0.342577	-0.000243
	C5454	C	0.410957	0.394666	0.500239
	C5455	C	0.475034	0.356016	0.000264
	C5456	C	0.408375	0.337991	0.250162
	C5457	C	0.470940	0.400194	0.250454
	C5458	C	0.378540	0.323118	0.250663
	C5459	C	0.441087	0.385378	0.250599
	C5460	C	0.393868	0.438809	0.499902
	C5461	C	0.452575	0.345957	-0.000314
	C5462	C	0.405150	0.409641	0.500246
	C5463	C	0.467291	0.353848	0.000147
	C5464	C	0.400702	0.335207	0.250144
	C5465	C	0.463269	0.397437	0.250412
	C5466	C	0.385863	0.328642	0.250207
	C5467	C	0.448427	0.390797	0.250484
	C5468	C	0.396931	0.431678	0.449854
	C5469	C	0.456299	0.348608	0.416449
	C5470	C	0.402322	0.417320	-0.038439
	C5471	C	0.463467	0.352140	-0.083770
	C5472	C	0.402414	0.417528	0.449989
	C5473	C	0.463431	0.352324	0.416311
	C5474	C	0.396833	0.431502	-0.038425
	C5475	C	0.456326	0.348438	-0.083977
	C5476	C	0.396889	0.333265	0.167576
	C5477	C	0.459449	0.395706	0.168009
	C5478	C	0.389591	0.331293	0.332812
	C5479	C	0.452179	0.393131	0.332978
	C5480	C	0.389687	0.330099	0.167441
	C5481	C	0.452252	0.392459	0.168040
	C5482	C	0.396797	0.334429	0.332880
	C5483	C	0.459366	0.396411	0.332781
	N5484	N	0.379936	0.476521	0.452142
	N5485	N	0.433297	0.342950	0.451525
	N5486	N	0.419451	0.372948	0.048231
	N5487	N	0.486684	0.352802	0.048775
	N5488	N	0.419513	0.372931	0.452481
	N5489	N	0.486661	0.352422	0.451391
	N5490	N	0.379864	0.476423	0.046854
	N5491	N	0.433349	0.343125	0.049491
	N5492	N	0.419499	0.343546	0.201828
	N5493	N	0.482103	0.405415	0.202113
	N5494	N	0.368761	0.309974	0.299230
	N5495	N	0.431322	0.372205	0.298577
	N5496	N	0.368763	0.309910	0.202746
	N5497	N	0.431287	0.372396	0.202223
	N5498	N	0.419521	0.343376	0.298697
	N5499	N	0.482089	0.405503	0.299338
	H5500	H	0.385719	0.460650	0.850866
	H5501	H	0.441573	0.341816	0.847125
	H5502	H	0.413480	0.388081	0.650960
	H5503	H	0.478429	0.355810	0.651939
	H5504	H	0.413536	0.388570	0.849297
	H5505	H	0.478428	0.355628	0.848245
	H5506	H	0.385465	0.460216	0.648716
	H5507	H	0.441648	0.342200	0.652985
	H5508	H	0.411761	0.339095	0.599223
	H5509	H	0.474233	0.401574	0.599000
	H5510	H	0.375649	0.319333	0.902433
	H5511	H	0.438098	0.382057	0.902046
	H5512	H	0.375463	0.319884	0.599032
	H5513	H	0.438029	0.382057	0.598859
	H5514	H	0.411624	0.339690	0.901510
	H5515	H	0.474174	0.402199	0.900921
	H5516	H	0.394357	0.436219	1.066783
	H5517	H	0.453690	0.346465	1.149858
	H5518	H	0.404066	0.410911	0.589007
	H5519	H	0.466239	0.352946	0.650018
	H5520	H	0.404045	0.411294	1.066717
	H5521	H	0.466162	0.352953	1.150569
	H5522	H	0.394352	0.435892	0.589604
	H5523	H	0.453695	0.346593	0.650115
	H5524	H	0.399467	0.336027	0.898351
	H5525	H	0.462031	0.398331	0.897903
	H5526	H	0.387064	0.328390	0.601787
	H5527	H	0.449522	0.391312	0.602580
	H5528	H	0.386889	0.330242	0.898418
	H5529	H	0.449411	0.392550	0.897983
	H5530	H	0.399682	0.334185	0.601760
	H5531	H	0.462124	0.396948	0.602405
	Co5532	Co	0.488488	0.418218	0.625683
	Co5533	Co	0.425894	0.356096	0.625726
	Co5534	Co	0.363436	0.293719	0.876544
	Co5535	Co	0.425904	0.356178	0.875886
	C5536	C	0.384806	0.463016	0.923471
	C5537	C	0.440296	0.342320	0.922401
	C5538	C	0.414379	0.385766	0.577206
	C5539	C	0.479709	0.355025	0.577711
	C5540	C	0.414424	0.385999	0.922602
	C5541	C	0.479707	0.354851	0.922389
	C5542	C	0.384684	0.462794	0.575590
	C5543	C	0.440300	0.342586	0.578117
	C5544	C	0.412928	0.339853	0.673244
	C5545	C	0.475440	0.402311	0.672963
	C5546	C	0.374584	0.317846	0.828317
	C5547	C	0.437047	0.380417	0.827658
	C5548	C	0.374543	0.317867	0.673460
	C5549	C	0.437023	0.380445	0.672920
	C5550	C	0.412860	0.340154	0.827501
	C5551	C	0.475388	0.402697	0.827173
	C5552	C	0.388079	0.453848	0.999799
	C5553	C	0.444922	0.342665	0.500412
	C5554	C	0.410924	0.394750	0.999768
	C5555	C	0.475033	0.355944	0.500118
	C5556	C	0.408382	0.337898	0.750183
	C5557	C	0.470884	0.400482	0.750046
	C5558	C	0.378594	0.322958	0.750645
	C5559	C	0.441069	0.385514	0.750369
	C5560	C	0.393813	0.438744	0.999643
	C5561	C	0.452559	0.346054	0.500111
	C5562	C	0.405101	0.409633	0.999360
	C5563	C	0.467282	0.353853	0.500058
	C5564	C	0.400733	0.335104	0.749946
	C5565	C	0.463218	0.397762	0.750343
	C5566	C	0.385897	0.328517	0.750283
	C5567	C	0.448382	0.391109	0.750410
	C5568	C	0.396578	0.431017	1.037150
	C5569	C	0.456380	0.347945	1.083249
	C5570	C	0.402073	0.416697	0.550310
	C5571	C	0.463514	0.351710	0.583610
	C5572	C	0.402053	0.416838	1.037019
	C5573	C	0.463504	0.351713	1.083395
	C5574	C	0.396579	0.430838	0.550089
	C5575	C	0.456381	0.348009	0.583608
	C5576	C	0.396824	0.334314	0.832586
	C5577	C	0.459340	0.396750	0.832678
	C5578	C	0.389725	0.330023	0.667487
	C5579	C	0.452204	0.392774	0.667977
	C5580	C	0.389621	0.331081	0.832739
	C5581	C	0.452136	0.393538	0.832812
	C5582	C	0.396928	0.333264	0.667324
	C5583	C	0.459399	0.396029	0.667995
	N5584	N	0.379893	0.476432	0.952267
	N5585	N	0.433315	0.343057	0.951171
	N5586	N	0.419466	0.372804	0.547882
	N5587	N	0.486651	0.352517	0.548904
	N5588	N	0.419490	0.373018	0.952187
	N5589	N	0.486678	0.352525	0.951113
	N5590	N	0.379814	0.476281	0.546831
	N5591	N	0.433325	0.343140	0.549865
	N5592	N	0.419545	0.343207	0.701880
	N5593	N	0.482077	0.405593	0.702015
	N5594	N	0.368817	0.309851	0.799387
	N5595	N	0.431273	0.372430	0.798710
	N5596	N	0.368792	0.309869	0.702771
	N5597	N	0.431268	0.372435	0.702212
	N5598	N	0.419482	0.343511	0.799000
	N5599	N	0.482035	0.405794	0.798652
	H5600	H	0.397361	0.662407	0.348408
	H5601	H	0.448257	0.522669	0.351228
	H5602	H	0.425173	0.589934	0.149305
	H5603	H	0.475996	0.450618	0.151378
	H5604	H	0.425092	0.590048	0.349992
	H5605	H	0.476031	0.450535	0.350330
	H5606	H	0.397411	0.662511	0.151224
	H5607	H	0.448321	0.522843	0.149216
	H5608	H	0.422796	0.538517	0.103294
	H5609	H	0.485320	0.600915	0.101897
	H5610	H	0.387946	0.513294	0.397776
	H5611	H	0.450472	0.575130	0.397463
	H5612	H	0.388211	0.512160	0.103724
	H5613	H	0.450647	0.574635	0.102638
	H5614	H	0.422990	0.537711	0.398302
	H5615	H	0.485318	0.600487	0.395548
	H5616	H	0.407033	0.640117	0.540501
	H5617	H	0.457144	0.498627	0.564906
	H5618	H	0.416160	0.613768	-0.119593
	H5619	H	0.466591	0.473198	-0.073754
	H5620	H	0.416661	0.614927	0.540644
	H5621	H	0.466793	0.473668	0.565347
	H5622	H	0.406451	0.638842	-0.119199
	H5623	H	0.456915	0.498170	-0.073989
	H5624	H	0.411472	0.531065	0.213845
	H5625	H	0.474113	0.592416	0.289046
	H5626	H	0.399589	0.519372	0.289158
	H5627	H	0.461735	0.583489	0.209550
	H5628	H	0.399125	0.522603	0.213662
	H5629	H	0.461763	0.584005	0.289955
	H5630	H	0.411950	0.527914	0.289486
	H5631	H	0.474089	0.592069	0.209248
	Co5632	Co	0.499157	0.619162	0.124358
	Co5633	Co	0.436726	0.556358	0.124838
	Co5634	Co	0.374127	0.494280	0.374729
	Co5635	Co	0.436724	0.556434	0.375608
	C5636	C	0.396458	0.664818	0.422238
	C5637	C	0.447357	0.525170	0.424004
	C5638	C	0.426075	0.587545	0.076497
	C5639	C	0.476959	0.448077	0.077683
	C5640	C	0.426046	0.587661	0.422828
	C5641	C	0.476973	0.448071	0.424101
	C5642	C	0.396490	0.664891	0.077218
	C5643	C	0.447384	0.525221	0.076364
	C5644	C	0.424018	0.539228	0.175453
	C5645	C	0.486480	0.601782	0.173637
	C5646	C	0.386841	0.511862	0.326141
	C5647	C	0.449359	0.573991	0.325617
	C5648	C	0.386992	0.511341	0.175366
	C5649	C	0.449424	0.573802	0.174542
	C5650	C	0.424103	0.538849	0.326446
	C5651	C	0.486494	0.601631	0.324129
	C5652	C	0.399973	0.656109	0.499229
	C5653	C	0.450675	0.516032	0.000127
	C5654	C	0.422727	0.596777	0.499314
	C5655	C	0.473519	0.456952	0.000711
	C5656	C	0.419882	0.535316	0.251331
	C5657	C	0.482303	0.598009	0.248597
	C5658	C	0.391117	0.515267	0.251009
	C5659	C	0.453548	0.577767	0.250031
	C5660	C	0.405781	0.641220	0.498978
	C5661	C	0.456394	0.500928	0.000248
	C5662	C	0.416989	0.611826	0.498921
	C5663	C	0.467707	0.471841	0.000740
	C5664	C	0.412611	0.530115	0.251527
	C5665	C	0.475018	0.592857	0.249097
	C5666	C	0.398398	0.520480	0.251206
	C5667	C	0.460801	0.583152	0.249978
	C5668	C	0.408916	0.634230	0.522276
	C5669	C	0.459271	0.493303	0.536469
	C5670	C	0.414083	0.619275	-0.066808
	C5671	C	0.464638	0.478886	-0.041260
	C5672	C	0.414363	0.619953	0.522121
	C5673	C	0.464763	0.479158	0.537100
	C5674	C	0.408578	0.633392	-0.066738
	C5675	C	0.459145	0.493052	-0.041472
	C5676	C	0.408861	0.528499	0.230266
	C5677	C	0.471395	0.590501	0.271918
	C5678	C	0.402164	0.522034	0.272581
	C5679	C	0.464427	0.585517	0.226966
	C5680	C	0.401906	0.523779	0.230171
	C5681	C	0.464438	0.585755	0.272070
	C5682	C	0.409123	0.526787	0.272791
	C5683	C	0.471382	0.590272	0.226663
	N5684	N	0.391389	0.677770	0.451468
	N5685	N	0.442478	0.538622	0.452919
	N5686	N	0.431005	0.574200	0.047449
	N5687	N	0.482023	0.435094	0.048752
	N5688	N	0.430949	0.574280	0.451883
	N5689	N	0.482034	0.435089	0.453131
	N5690	N	0.391420	0.677889	0.047817
	N5691	N	0.442482	0.538641	0.047446
	N5692	N	0.430254	0.544701	0.203756
	N5693	N	0.492704	0.607299	0.202520
	N5694	N	0.380650	0.506136	0.296905
	N5695	N	0.443197	0.568235	0.297034
	N5696	N	0.380769	0.505795	0.203076
	N5697	N	0.443240	0.568074	0.203087
	N5698	N	0.430300	0.544462	0.297473
	N5699	N	0.492693	0.607268	0.296147
	H5700	H	0.397378	0.662398	0.848937
	H5701	H	0.448145	0.522574	0.850744
	H5702	H	0.425152	0.590166	0.648754
	H5703	H	0.476194	0.450607	0.652283
	H5704	H	0.425160	0.590192	0.850807
	H5705	H	0.476093	0.450711	0.850519
	H5706	H	0.397447	0.662630	0.650101
	H5707	H	0.448265	0.522893	0.649664
	H5708	H	0.422812	0.538329	0.603520
	H5709	H	0.485275	0.600917	0.602803
	H5710	H	0.387932	0.513559	0.897168
	H5711	H	0.450708	0.574742	0.897777
	H5712	H	0.388279	0.511706	0.603287
	H5713	H	0.450554	0.574793	0.603242
	H5714	H	0.422909	0.537848	0.898363
	H5715	H	0.485381	0.600706	0.897297
	H5716	H	0.406514	0.638913	1.120061
	H5717	H	0.457411	0.499608	1.074783
	H5718	H	0.415764	0.613070	0.457415
	H5719	H	0.467039	0.474141	0.437657
	H5720	H	0.416214	0.613919	1.119167
	H5721	H	0.467109	0.474660	1.075692
	H5722	H	0.406147	0.638177	0.456877
	H5723	H	0.457372	0.499204	0.436714
	H5724	H	0.411601	0.529504	0.776131
	H5725	H	0.474097	0.591921	0.793686
	H5726	H	0.399323	0.521344	0.725527
	H5727	H	0.461878	0.583300	0.705805
	H5728	H	0.399264	0.521019	0.775299
	H5729	H	0.461750	0.583397	0.793248
	H5730	H	0.411703	0.529731	0.726438
	H5731	H	0.474201	0.591904	0.705954
	Co5732	Co	0.499217	0.619271	0.624062
	Co5733	Co	0.436718	0.556501	0.624997
	Co5734	Co	0.374238	0.494333	0.874663
	Co5735	Co	0.436743	0.556458	0.875680
	C5736	C	0.396465	0.664820	0.922717
	C5737	C	0.447295	0.525094	0.923843
	C5738	C	0.426057	0.587699	0.575771
	C5739	C	0.477042	0.448128	0.578584
	C5740	C	0.426071	0.587651	0.923901
	C5741	C	0.477021	0.448135	0.923711
	C5742	C	0.396517	0.664985	0.576358
	C5743	C	0.447345	0.525222	0.576808
	C5744	C	0.423991	0.539239	0.675215
	C5745	C	0.486473	0.601859	0.674529
	C5746	C	0.386841	0.512000	0.825479
	C5747	C	0.449461	0.573782	0.825956
	C5748	C	0.387030	0.511073	0.674756
	C5749	C	0.449385	0.573829	0.674644
	C5750	C	0.424042	0.538978	0.826505
	C5751	C	0.486512	0.601772	0.825398
	C5752	C	0.399905	0.655998	0.999972
	C5753	C	0.450684	0.516072	0.500504
	C5754	C	0.422720	0.596603	1.000304
	C5755	C	0.473561	0.456903	0.501499
	C5756	C	0.419827	0.535461	0.750928
	C5757	C	0.482325	0.597987	0.749978
	C5758	C	0.391115	0.515248	0.750205
	C5759	C	0.453602	0.577475	0.750258
	C5760	C	0.405697	0.641007	1.000319
	C5761	C	0.456416	0.500978	0.500598
	C5762	C	0.416973	0.611726	1.000259
	C5763	C	0.467743	0.471816	0.501494
	C5764	C	0.412566	0.530225	0.751060
	C5765	C	0.475087	0.592549	0.750061
	C5766	C	0.398371	0.520593	0.750569
	C5767	C	0.460883	0.582737	0.750018
	C5768	C	0.408591	0.633490	1.067255
	C5769	C	0.459421	0.493827	1.042361
	C5770	C	0.413868	0.618903	0.475617
	C5771	C	0.464884	0.479470	0.465379
	C5772	C	0.414083	0.619330	1.067142
	C5773	C	0.464916	0.479657	1.042581
	C5774	C	0.408421	0.633177	0.475485
	C5775	C	0.459396	0.493645	0.464838
	C5776	C	0.408932	0.527697	0.765174
	C5777	C	0.471431	0.590072	0.774515
	C5778	C	0.402011	0.523131	0.736868
	C5779	C	0.464545	0.585197	0.725322
	C5780	C	0.401976	0.522988	0.764891
	C5781	C	0.464478	0.585254	0.774344
	C5782	C	0.408963	0.527861	0.737002
	C5783	C	0.471491	0.590015	0.725389
	N5784	N	0.391414	0.677881	0.952048
	N5785	N	0.442421	0.538508	0.952855
	N5786	N	0.430970	0.574303	0.547024
	N5787	N	0.482073	0.435105	0.548799
	N5788	N	0.431002	0.574271	0.952616
	N5789	N	0.482051	0.435120	0.952947
	N5790	N	0.391423	0.677868	0.547058
	N5791	N	0.442465	0.538641	0.547723
	N5792	N	0.430215	0.544789	0.703586
	N5793	N	0.492664	0.607621	0.702828
	N5794	N	0.380678	0.506202	0.796799
	N5795	N	0.443236	0.568252	0.797393
	N5796	N	0.380795	0.505682	0.702825
	N5797	N	0.443190	0.568280	0.703332
	N5798	N	0.430251	0.544641	0.797568
	N5799	N	0.492701	0.607495	0.796729
	H5800	H	0.394943	0.757882	0.346857
	H5801	H	0.459796	0.725097	0.348964
	H5802	H	0.431723	0.771726	0.152706
	H5803	H	0.487675	0.652780	0.149119
	H5804	H	0.431791	0.771517	0.347293
	H5805	H	0.487477	0.652431	0.350639
	H5806	H	0.394913	0.758393	0.151470
	H5807	H	0.459872	0.725302	0.150772
	H5808	H	0.435239	0.731568	0.097621
	H5809	H	0.497812	0.793982	0.097116
	H5810	H	0.399168	0.711539	0.400991
	H5811	H	0.461664	0.774268	0.400533
	H5812	H	0.399240	0.711392	0.098658
	H5813	H	0.461638	0.774047	0.098073
	H5814	H	0.435348	0.731460	0.401046
	H5815	H	0.497726	0.794139	0.400400
	H5816	H	0.407191	0.760356	0.348684
	H5817	H	0.469303	0.702664	0.427132
	H5818	H	0.419668	0.766885	-0.150499
	H5819	H	0.479237	0.677953	-0.007596
	H5820	H	0.419737	0.766737	0.349006
	H5821	H	0.478916	0.677391	0.426231
	H5822	H	0.407186	0.760447	-0.150666
	H5823	H	0.469624	0.703084	-0.007246
	H5824	H	0.423888	0.721819	0.397705
	H5825	H	0.486402	0.784041	0.396634
	H5826	H	0.411337	0.715514	0.102651
	H5827	H	0.473673	0.778815	0.100308
	H5828	H	0.411315	0.715706	0.397768
	H5829	H	0.473778	0.778116	0.397160
	H5830	H	0.423930	0.721546	0.102632
	H5831	H	0.486320	0.784525	0.099982
	Co5832	Co	0.509918	0.819971	0.123846
	Co5833	Co	0.447426	0.757506	0.123985
	Co5834	Co	0.384986	0.694683	0.374327
	Co5835	Co	0.447437	0.757445	0.374421
	C5836	C	0.393685	0.758812	0.421470
	C5837	C	0.458933	0.727659	0.422445
	C5838	C	0.433048	0.771200	0.077218
	C5839	C	0.488524	0.650395	0.076049
	C5840	C	0.433071	0.771155	0.421678
	C5841	C	0.488453	0.650124	0.423185
	C5842	C	0.393668	0.759093	0.077175
	C5843	C	0.458948	0.727734	0.077229
	C5844	C	0.436239	0.733322	0.171915
	C5845	C	0.498775	0.795702	0.171119
	C5846	C	0.398005	0.710711	0.326875
	C5847	C	0.460425	0.773630	0.326541
	C5848	C	0.398025	0.710625	0.172515
	C5849	C	0.460399	0.773605	0.172237
	C5850	C	0.436286	0.733259	0.326666
	C5851	C	0.498724	0.795736	0.326129
	C5852	C	0.398347	0.757580	0.498998
	C5853	C	0.462438	0.718946	0.000240
	C5854	C	0.428425	0.770966	0.499271
	C5855	C	0.485168	0.659398	-0.000168
	C5856	C	0.432259	0.728265	0.249417
	C5857	C	0.494735	0.790652	0.248535
	C5858	C	0.402505	0.712717	0.249869
	C5859	C	0.464906	0.775732	0.249243
	C5860	C	0.406103	0.759657	0.498769
	C5861	C	0.468238	0.703965	-0.000167
	C5862	C	0.420803	0.767553	0.499245
	C5863	C	0.479448	0.674540	-0.000494
	C5864	C	0.424962	0.722588	0.249865
	C5865	C	0.487417	0.785103	0.248484
	C5866	C	0.410170	0.715580	0.250154
	C5867	C	0.472574	0.778539	0.248891
	C5868	C	0.409910	0.761667	0.415086
	C5869	C	0.471265	0.696823	0.459135
	C5870	C	0.416992	0.765572	-0.083888
	C5871	C	0.476873	0.682842	-0.004418
	C5872	C	0.417034	0.765430	0.415533
	C5873	C	0.476713	0.682530	0.458752
	C5874	C	0.409881	0.761758	-0.083949
	C5875	C	0.471441	0.697132	-0.004264
	C5876	C	0.421180	0.720493	0.332318
	C5877	C	0.483663	0.782904	0.331206
	C5878	C	0.414027	0.716954	0.167901
	C5879	C	0.476411	0.780005	0.165937
	C5880	C	0.414015	0.717097	0.332409
	C5881	C	0.476456	0.779751	0.331369
	C5882	C	0.421192	0.720372	0.167857
	C5883	C	0.483613	0.783208	0.165857
	N5884	N	0.386717	0.761449	0.450340
	N5885	N	0.453857	0.740623	0.451591
	N5886	N	0.440016	0.770491	0.048590
	N5887	N	0.493470	0.637049	0.047143
	N5888	N	0.440033	0.770429	0.450456
	N5889	N	0.493409	0.636837	0.451713
	N5890	N	0.386724	0.761567	0.048489
	N5891	N	0.453898	0.740707	0.047742
	N5892	N	0.442035	0.741304	0.200801
	N5893	N	0.504526	0.803742	0.200702
	N5894	N	0.391383	0.707298	0.297867
	N5895	N	0.453792	0.770271	0.298074
	N5896	N	0.391385	0.707334	0.200924
	N5897	N	0.453775	0.770253	0.201142
	N5898	N	0.442057	0.741275	0.297293
	N5899	N	0.504501	0.803740	0.297152
	H5900	H	0.394911	0.757595	0.847849
	H5901	H	0.459997	0.725605	0.849519
	H5902	H	0.431770	0.771674	0.650916
	H5903	H	0.487729	0.652990	0.647341
	H5904	H	0.431758	0.771519	0.846923
	H5905	H	0.487700	0.652820	0.850911
	H5906	H	0.394933	0.757880	0.651492
	H5907	H	0.459882	0.725499	0.650111
	H5908	H	0.435255	0.731558	0.597331
	H5909	H	0.497741	0.794327	0.596535
	H5910	H	0.399142	0.711672	0.901034
	H5911	H	0.461695	0.774072	0.900423
	H5912	H	0.399194	0.711263	0.599007
	H5913	H	0.461632	0.774398	0.598024
	H5914	H	0.435280	0.731464	0.901568
	H5915	H	0.497839	0.793943	0.900221
	H5916	H	0.407258	0.759849	1.149933
	H5917	H	0.468460	0.700494	1.006940
	H5918	H	0.419743	0.766356	0.649495
	H5919	H	0.478356	0.675806	0.573015
	H5920	H	0.419796	0.766367	1.149888
	H5921	H	0.478070	0.675288	1.006942
	H5922	H	0.407238	0.759953	0.648967
	H5923	H	0.468757	0.701126	0.572472
	H5924	H	0.423867	0.721947	0.897332
	H5925	H	0.486279	0.784560	0.600443
	H5926	H	0.411263	0.715795	0.602055
	H5927	H	0.473763	0.778369	0.897112
	H5928	H	0.411261	0.716061	0.897525
	H5929	H	0.473688	0.778664	0.600933
	H5930	H	0.423858	0.721632	0.601261
	H5931	H	0.486375	0.784343	0.896760
	Co5932	Co	0.509891	0.820157	0.624194
	Co5933	Co	0.447449	0.757492	0.624516
	Co5934	Co	0.384968	0.694651	0.874896
	Co5935	Co	0.447470	0.757421	0.874876
	C5936	C	0.393676	0.758748	0.922426
	C5937	C	0.459029	0.727921	0.923276
	C5938	C	0.433061	0.771105	0.576923
	C5939	C	0.488580	0.650409	0.575131
	C5940	C	0.433045	0.771159	0.921905
	C5941	C	0.488534	0.650400	0.923796
	C5942	C	0.393680	0.758790	0.576672
	C5943	C	0.459002	0.727851	0.576403
	C5944	C	0.436287	0.733279	0.671992
	C5945	C	0.498728	0.795863	0.671182
	C5946	C	0.397949	0.710902	0.826929
	C5947	C	0.460421	0.773539	0.826490
	C5948	C	0.397987	0.710694	0.672906
	C5949	C	0.460402	0.773698	0.671829
	C5950	C	0.436297	0.733196	0.826958
	C5951	C	0.498776	0.795716	0.825806
	C5952	C	0.398351	0.757795	0.999961
	C5953	C	0.462454	0.718953	0.499492
	C5954	C	0.428412	0.771033	0.999781
	C5955	C	0.485169	0.659348	0.499187
	C5956	C	0.432261	0.728144	0.749229
	C5957	C	0.494711	0.790727	0.748566
	C5958	C	0.402440	0.713063	0.749994
	C5959	C	0.464906	0.775768	0.749185
	C5960	C	0.406092	0.759804	0.999856
	C5961	C	0.468230	0.703946	0.499610
	C5962	C	0.420781	0.767659	0.999807
	C5963	C	0.479442	0.674510	0.499490
	C5964	C	0.424943	0.722572	0.749271
	C5965	C	0.487399	0.785213	0.748743
	C5966	C	0.410105	0.715908	0.749836
	C5967	C	0.472564	0.778579	0.749048
	C5968	C	0.409922	0.761528	1.083531
	C5969	C	0.470788	0.695688	1.003860
	C5970	C	0.417050	0.765226	0.582755
	C5971	C	0.476407	0.681690	0.540743
	C5972	C	0.417051	0.765281	1.083397
	C5973	C	0.476225	0.681388	1.003611
	C5974	C	0.409937	0.761388	0.582560
	C5975	C	0.470957	0.695982	0.540501
	C5976	C	0.421158	0.720644	0.831901
	C5977	C	0.483590	0.783229	0.666232
	C5978	C	0.413976	0.717139	0.667221
	C5979	C	0.476444	0.779877	0.831477
	C5980	C	0.413971	0.717352	0.832159
	C5981	C	0.476388	0.780040	0.666374
	C5982	C	0.421159	0.720462	0.666940
	C5983	C	0.483644	0.783082	0.831347
	N5984	N	0.386717	0.761378	0.950962
	N5985	N	0.453945	0.740821	0.952271
	N5986	N	0.440014	0.770401	0.548600
	N5987	N	0.493487	0.636994	0.546353
	N5988	N	0.440022	0.770412	0.950395
	N5989	N	0.493480	0.637033	0.952512
	N5990	N	0.386717	0.761474	0.547918
	N5991	N	0.453914	0.740800	0.546961
	N5992	N	0.442056	0.741246	0.701330
	N5993	N	0.504509	0.803832	0.700388
	N5994	N	0.391326	0.707415	0.798135
	N5995	N	0.453800	0.770201	0.797895
	N5996	N	0.391369	0.707267	0.701202
	N5997	N	0.453770	0.770337	0.700763
	N5998	N	0.442087	0.741148	0.797889
	N5999	N	0.504539	0.803673	0.796862
	H6000	H	0.389549	0.841636	0.347031
	H6001	H	0.457416	0.820655	0.347523
	H6002	H	0.426380	0.855245	0.151713
	H6003	H	0.494228	0.834344	0.151304
	H6004	H	0.426237	0.855288	0.347178
	H6005	H	0.494182	0.833994	0.346242
	H6006	H	0.389586	0.842041	0.152195
	H6007	H	0.457442	0.820424	0.151415
	H6008	H	0.429012	0.814958	0.097265
	H6009	H	0.491493	0.877589	0.096864
	H6010	H	0.392317	0.798310	0.401740
	H6011	H	0.454796	0.860742	0.401161
	H6012	H	0.392287	0.798475	0.096870
	H6013	H	0.454788	0.860724	0.097541
	H6014	H	0.428973	0.815075	0.401361
	H6015	H	0.491460	0.877634	0.400756
	H6016	H	0.401595	0.846424	0.649752
	H6017	H	0.469688	0.822714	0.349304
	H6018	H	0.414162	0.852585	0.149121
	H6019	H	0.482223	0.829408	0.149549
	H6020	H	0.414043	0.852899	0.650404
	H6021	H	0.482191	0.828990	0.349087
	H6022	H	0.401653	0.846368	0.149974
	H6023	H	0.469711	0.823055	0.149472
	H6024	H	0.417027	0.808957	0.099142
	H6025	H	0.479593	0.871151	0.399863
	H6026	H	0.404287	0.804541	0.400015
	H6027	H	0.466768	0.867302	0.098561
	H6028	H	0.404334	0.804288	0.099077
	H6029	H	0.466917	0.866503	0.400175
	H6030	H	0.416972	0.809078	0.400114
	H6031	H	0.479424	0.871828	0.098235
	Co6032	Co	0.504407	0.900467	0.123091
	Co6033	Co	0.441927	0.837810	0.124404
	Co6034	Co	0.379444	0.775438	0.375156
	Co6035	Co	0.441883	0.837954	0.374883
	C6036	C	0.388229	0.842073	0.421965
	C6037	C	0.456144	0.821480	0.421801
	C6038	C	0.427683	0.854343	0.076926
	C6039	C	0.495553	0.833862	0.076673
	C6040	C	0.427593	0.854408	0.421490
	C6041	C	0.495509	0.833591	0.421360
	C6042	C	0.388245	0.842328	0.077684
	C6043	C	0.456155	0.821277	0.077002
	C6044	C	0.430095	0.816304	0.171734
	C6045	C	0.492590	0.878976	0.171499
	C6046	C	0.391215	0.796950	0.326898
	C6047	C	0.453721	0.859276	0.326845
	C6048	C	0.391185	0.797115	0.171973
	C6049	C	0.453708	0.859383	0.172003
	C6050	C	0.430077	0.816449	0.326886
	C6051	C	0.492570	0.879041	0.326701
	C6052	C	0.392910	0.842206	0.499690
	C6053	C	0.460837	0.820174	-0.000629
	C6054	C	0.422903	0.855557	0.499445
	C6055	C	0.490922	0.833601	-0.000905
	C6056	C	0.425783	0.812732	0.249423
	C6057	C	0.488284	0.875384	0.249066
	C6058	C	0.395524	0.800670	0.249416
	C6059	C	0.458045	0.862956	0.249421
	C6060	C	0.400525	0.845444	0.499486
	C6061	C	0.468592	0.822246	-0.000752
	C6062	C	0.415198	0.853495	0.499758
	C6063	C	0.483301	0.830203	-0.000859
	C6064	C	0.418193	0.809189	0.249547
	C6065	C	0.480688	0.871752	0.249091
	C6066	C	0.403118	0.804193	0.249429
	C6067	C	0.465630	0.866603	0.249557
	C6068	C	0.404279	0.847723	0.583125
	C6069	C	0.472394	0.823960	0.415799
	C6070	C	0.411446	0.851438	0.082761
	C6071	C	0.479516	0.828074	0.082800
	C6072	C	0.411408	0.851539	0.583399
	C6073	C	0.479516	0.827726	0.416009
	C6074	C	0.404298	0.847800	0.083141
	C6075	C	0.472400	0.824255	0.082760
	C6076	C	0.414305	0.807864	0.165968
	C6077	C	0.476847	0.870213	0.333014
	C6078	C	0.407001	0.805518	0.333026
	C6079	C	0.469471	0.868108	0.165738
	C6080	C	0.407020	0.805369	0.166052
	C6081	C	0.469577	0.867605	0.333192
	C6082	C	0.414289	0.807939	0.333088
	C6083	C	0.476756	0.870628	0.165359
	N6084	N	0.381290	0.842836	0.450670
	N6085	N	0.449191	0.824128	0.450671
	N6086	N	0.434618	0.851708	0.048343
	N6087	N	0.502521	0.833057	0.048134
	N6088	N	0.434539	0.851759	0.450369
	N6089	N	0.502487	0.833023	0.449669
	N6090	N	0.381285	0.842957	0.049198
	N6091	N	0.449196	0.823906	0.048497
	N6092	N	0.436313	0.822355	0.200703
	N6093	N	0.498833	0.885016	0.200626
	N6094	N	0.384990	0.790954	0.297987
	N6095	N	0.447492	0.853363	0.298175
	N6096	N	0.384985	0.791030	0.200738
	N6097	N	0.447514	0.853282	0.200866
	N6098	N	0.436308	0.822435	0.297986
	N6099	N	0.498808	0.885083	0.297702
	H6100	H	0.389543	0.841488	0.847803
	H6101	H	0.457395	0.820487	0.847093
	H6102	H	0.426305	0.855161	0.651460
	H6103	H	0.494235	0.834559	0.651333
	H6104	H	0.426396	0.854910	0.846958
	H6105	H	0.494227	0.834081	0.847092
	H6106	H	0.389560	0.841718	0.652105
	H6107	H	0.457446	0.820358	0.651519
	H6108	H	0.428924	0.815323	0.596538
	H6109	H	0.491401	0.877872	0.596000
	H6110	H	0.392339	0.797996	0.901475
	H6111	H	0.454819	0.860672	0.901537
	H6112	H	0.392296	0.798507	0.597985
	H6113	H	0.454731	0.860763	0.596712
	H6114	H	0.429086	0.814829	0.901490
	H6115	H	0.491550	0.877248	0.900778
	H6116	H	0.401526	0.847170	0.849740
	H6117	H	0.469729	0.822786	0.848798
	H6118	H	0.414010	0.853219	0.349046
	H6119	H	0.482173	0.829151	0.649891
	H6120	H	0.414031	0.853422	0.849043
	H6121	H	0.482251	0.829106	0.848578
	H6122	H	0.401578	0.846586	0.349214
	H6123	H	0.469687	0.822641	0.649823
	H6124	H	0.416970	0.809486	0.899836
	H6125	H	0.479486	0.871303	0.598433
	H6126	H	0.404360	0.803734	0.598968
	H6127	H	0.466747	0.867199	0.899446
	H6128	H	0.404264	0.804851	0.900410
	H6129	H	0.466769	0.866900	0.598435
	H6130	H	0.417050	0.808466	0.598917
	H6131	H	0.479453	0.871681	0.899163
	Co6132	Co	0.504349	0.900686	0.623224
	Co6133	Co	0.441862	0.837930	0.623487
	Co6134	Co	0.379429	0.775231	0.874573
	Co6135	Co	0.441925	0.837835	0.875203
	C6136	C	0.388230	0.842059	0.922369
	C6137	C	0.456132	0.821339	0.921992
	C6138	C	0.427619	0.854390	0.577087
	C6139	C	0.495531	0.833865	0.576584
	C6140	C	0.427679	0.854272	0.921618
	C6141	C	0.495551	0.833637	0.921499
	C6142	C	0.388227	0.842125	0.577408
	C6143	C	0.456141	0.821324	0.576998
	C6144	C	0.430056	0.816526	0.671448
	C6145	C	0.492531	0.879100	0.670536
	C6146	C	0.391254	0.796636	0.827038
	C6147	C	0.453710	0.859319	0.826634
	C6148	C	0.391215	0.796939	0.671965
	C6149	C	0.453665	0.859395	0.671622
	C6150	C	0.430110	0.816326	0.826695
	C6151	C	0.492591	0.878889	0.825821
	C6152	C	0.392898	0.842361	0.999996
	C6153	C	0.460808	0.820167	0.499433
	C6154	C	0.422978	0.855473	0.999330
	C6155	C	0.490884	0.833522	0.499223
	C6156	C	0.425768	0.812830	0.749165
	C6157	C	0.488258	0.875307	0.748346
	C6158	C	0.395522	0.800473	0.749666
	C6159	C	0.457993	0.863031	0.749003
	C6160	C	0.400508	0.845677	0.999827
	C6161	C	0.468577	0.822113	0.499523
	C6162	C	0.415235	0.853452	0.999317
	C6163	C	0.483276	0.830062	0.499573
	C6164	C	0.418170	0.809229	0.749466
	C6165	C	0.480653	0.871729	0.748699
	C6166	C	0.403150	0.804034	0.749718
	C6167	C	0.465584	0.866673	0.749056
	C6168	C	0.404251	0.848103	0.916183
	C6169	C	0.472400	0.824128	0.915730
	C6170	C	0.411392	0.851743	0.415937
	C6171	C	0.479509	0.827855	0.583099
	C6172	C	0.411400	0.851852	0.915844
	C6173	C	0.479529	0.827910	0.915462
	C6174	C	0.404261	0.847880	0.415842
	C6175	C	0.472388	0.824005	0.583102
	C6176	C	0.414278	0.808119	0.833246
	C6177	C	0.476771	0.870341	0.665147
	C6178	C	0.407049	0.805060	0.665816
	C6179	C	0.469468	0.868048	0.832633
	C6180	C	0.407011	0.805567	0.833519
	C6181	C	0.469487	0.867879	0.665311
	C6182	C	0.414309	0.807610	0.665803
	C6183	C	0.476749	0.870593	0.832390
	N6184	N	0.381265	0.842811	0.950986
	N6185	N	0.449179	0.823914	0.951019
	N6186	N	0.434547	0.851786	0.547955
	N6187	N	0.502498	0.833180	0.548015
	N6188	N	0.434613	0.851638	0.950697
	N6189	N	0.502513	0.832967	0.949854
	N6190	N	0.381281	0.842877	0.548681
	N6191	N	0.449197	0.824139	0.548105
	N6192	N	0.436310	0.822433	0.700255
	N6193	N	0.498755	0.885124	0.699470
	N6194	N	0.385001	0.790683	0.797801
	N6195	N	0.447474	0.853347	0.798138
	N6196	N	0.384984	0.790835	0.700658
	N6197	N	0.447462	0.853306	0.700854
	N6198	N	0.436327	0.822401	0.797652
	N6199	N	0.498813	0.884890	0.796720
	H6200	H	0.393075	1.014839	0.349077
	H6201	H	0.451991	0.904078	0.347012
	H6202	H	0.423249	0.948953	0.150513
	H6203	H	0.488924	0.917820	0.151403
	H6204	H	0.423352	0.949273	0.349495
	H6205	H	0.488791	0.917586	0.346287
	H6206	H	0.393167	1.015090	0.150079
	H6207	H	0.452074	0.904279	0.152391
	H6208	H	0.422199	0.901162	0.098942
	H6209	H	0.484710	0.964020	0.098115
	H6210	H	0.386013	0.881596	0.401914
	H6211	H	0.448558	0.944369	0.400781
	H6212	H	0.385964	0.882073	0.097907
	H6213	H	0.448491	0.944456	0.097482
	H6214	H	0.422077	0.901738	0.400395
	H6215	H	0.484622	0.963969	0.400271
	H6216	H	0.403292	0.994690	0.553520
	H6217	H	0.464040	0.909360	0.348508
	H6218	H	0.413912	0.972005	-0.029028
	H6219	H	0.476589	0.915690	-0.150775
	H6220	H	0.413799	0.971810	0.553055
	H6221	H	0.476515	0.915783	0.348490
	H6222	H	0.403433	0.994863	-0.029403
	H6223	H	0.464060	0.909413	-0.150469
	H6224	H	0.410011	0.897237	0.101641
	H6225	H	0.472520	0.959838	0.396852
	H6226	H	0.397410	0.891597	0.397975
	H6227	H	0.459923	0.954063	0.101117
	H6228	H	0.397414	0.891514	0.102255
	H6229	H	0.459882	0.954181	0.396622
	H6230	H	0.410044	0.897245	0.397839
	H6231	H	0.472553	0.959627	0.101460
	Co6232	Co	0.498864	0.980733	0.124189
	Co6233	Co	0.436333	0.918449	0.124726
	Co6234	Co	0.373876	0.855828	0.374459
	Co6235	Co	0.436361	0.918565	0.375196
	C6236	C	0.392192	1.017361	0.422980
	C6237	C	0.450682	0.904575	0.421417
	C6238	C	0.424329	0.946873	0.076891
	C6239	C	0.490184	0.917000	0.076455
	C6240	C	0.424385	0.947074	0.422832
	C6241	C	0.490114	0.916916	0.421159
	C6242	C	0.392254	1.017449	0.076506
	C6243	C	0.450734	0.904798	0.077683
	C6244	C	0.423421	0.901945	0.172740
	C6245	C	0.485864	0.964625	0.172316
	C6246	C	0.384993	0.880110	0.327374
	C6247	C	0.447530	0.942703	0.326618
	C6248	C	0.384982	0.880174	0.172674
	C6249	C	0.447492	0.942680	0.172058
	C6250	C	0.423361	0.902274	0.327033
	C6251	C	0.485849	0.964597	0.326497
	C6252	C	0.395959	1.009318	0.500286
	C6253	C	0.455389	0.904950	-0.000098
	C6254	C	0.420742	0.955459	0.499802
	C6255	C	0.485470	0.918182	-0.001066
	C6256	C	0.418872	0.899895	0.249820
	C6257	C	0.481363	0.962440	0.249362
	C6258	C	0.389036	0.885164	0.249922
	C6259	C	0.451527	0.947793	0.249097
	C6260	C	0.402219	0.995630	0.500120
	C6261	C	0.463009	0.908314	-0.000274
	C6262	C	0.414473	0.969125	0.499732
	C6263	C	0.477741	0.916232	-0.000732
	C6264	C	0.411209	0.897128	0.249812
	C6265	C	0.473691	0.959729	0.249339
	C6266	C	0.396356	0.890680	0.250146
	C6267	C	0.458841	0.953379	0.248880
	C6268	C	0.405473	0.989299	0.530042
	C6269	C	0.466713	0.910532	0.415094
	C6270	C	0.411510	0.976454	-0.016524
	C6271	C	0.473912	0.914382	-0.084032
	C6272	C	0.411441	0.976385	0.529836
	C6273	C	0.473838	0.914420	0.415148
	C6274	C	0.405570	0.989409	-0.016711
	C6275	C	0.466767	0.910612	-0.083952
	C6276	C	0.407361	0.895850	0.167419
	C6277	C	0.469808	0.958537	0.331742
	C6278	C	0.400141	0.892786	0.332738
	C6279	C	0.462629	0.955241	0.166470
	C6280	C	0.400153	0.892652	0.167445
	C6281	C	0.462602	0.955438	0.331468
	C6282	C	0.407357	0.895891	0.332360
	C6283	C	0.469834	0.958385	0.166618
	N6284	N	0.386851	1.029614	0.452262
	N6285	N	0.443740	0.905400	0.450515
	N6286	N	0.429777	0.934926	0.047899
	N6287	N	0.497099	0.914293	0.047326
	N6288	N	0.429792	0.934995	0.452019
	N6289	N	0.497056	0.914405	0.450154
	N6290	N	0.386886	1.029639	0.047212
	N6291	N	0.443764	0.905453	0.048823
	N6292	N	0.429999	0.905539	0.201302
	N6293	N	0.492484	0.968020	0.201004
	N6294	N	0.379206	0.872155	0.298220
	N6295	N	0.441756	0.934692	0.297752
	N6296	N	0.379199	0.872190	0.201651
	N6297	N	0.441731	0.934663	0.201479
	N6298	N	0.429962	0.905817	0.298186
	N6299	N	0.492481	0.968004	0.298090
	H6300	H	0.393326	1.015561	0.848446
	H6301	H	0.452087	0.904181	0.847507
	H6302	H	0.423566	0.949781	0.649946
	H6303	H	0.488768	0.918212	0.650891
	H6304	H	0.423565	0.949800	0.849467
	H6305	H	0.488852	0.917721	0.846718
	H6306	H	0.393468	1.015885	0.651458
	H6307	H	0.452102	0.904292	0.651254
	H6308	H	0.422261	0.901166	0.598400
	H6309	H	0.484736	0.963624	0.597907
	H6310	H	0.386041	0.881686	0.901430
	H6311	H	0.448505	0.944610	0.901277
	H6312	H	0.385989	0.881984	0.598314
	H6313	H	0.448529	0.944095	0.598027
	H6314	H	0.422175	0.901880	0.901344
	H6315	H	0.484673	0.963969	0.899858
	H6316	H	0.402752	0.992707	1.029060
	H6317	H	0.464127	0.909186	1.150072
	H6318	H	0.413390	0.970117	0.446554
	H6319	H	0.476570	0.915374	0.648481
	H6320	H	0.413282	0.969908	1.029515
	H6321	H	0.476599	0.915701	1.149565
	H6322	H	0.402911	0.992940	0.447078
	H6323	H	0.464119	0.908759	0.648947
	H6324	H	0.410143	0.896809	0.601443
	H6325	H	0.472588	0.959529	0.600345
	H6326	H	0.397359	0.892127	0.897653
	H6327	H	0.459995	0.954150	0.897258
	H6328	H	0.397502	0.891022	0.601149
	H6329	H	0.459939	0.953950	0.601153
	H6330	H	0.410028	0.897680	0.898004
	H6331	H	0.472618	0.959876	0.896843
	Co6332	Co	0.498868	0.980799	0.623955
	Co6333	Co	0.436347	0.918557	0.624439
	Co6334	Co	0.373892	0.855809	0.874791
	Co6335	Co	0.436375	0.918639	0.874901
	C6336	C	0.392336	1.017686	0.922289
	C6337	C	0.450727	0.904758	0.922135
	C6338	C	0.424491	0.947358	0.576461
	C6339	C	0.490101	0.917258	0.576493
	C6340	C	0.424505	0.947310	0.922881
	C6341	C	0.490147	0.916911	0.920966
	C6342	C	0.392375	1.017894	0.577407
	C6343	C	0.450734	0.904745	0.576890
	C6344	C	0.423409	0.902110	0.672619
	C6345	C	0.485936	0.964427	0.671436
	C6346	C	0.385013	0.880061	0.827074
	C6347	C	0.447528	0.942829	0.827078
	C6348	C	0.384984	0.880208	0.672227
	C6349	C	0.447554	0.942599	0.671998
	C6350	C	0.423387	0.902401	0.827061
	C6351	C	0.485888	0.964618	0.826221
	C6352	C	0.395986	1.009318	0.999476
	C6353	C	0.455386	0.904763	0.498815
	C6354	C	0.420718	0.955289	0.999794
	C6355	C	0.485388	0.918287	0.498640
	C6356	C	0.418904	0.900041	0.749888
	C6357	C	0.481423	0.962446	0.748695
	C6358	C	0.389027	0.885157	0.749747
	C6359	C	0.451576	0.947717	0.749469
	C6360	C	0.402252	0.995677	0.999479
	C6361	C	0.462991	0.908075	0.498684
	C6362	C	0.414469	0.968988	0.999896
	C6363	C	0.477657	0.916200	0.498544
	C6364	C	0.411225	0.897194	0.749778
	C6365	C	0.473763	0.959617	0.748779
	C6366	C	0.396364	0.890635	0.749528
	C6367	C	0.458904	0.953201	0.749072
	C6368	C	0.405214	0.988281	1.016303
	C6369	C	0.466783	0.910590	1.083146
	C6370	C	0.411231	0.975485	0.469780
	C6371	C	0.473886	0.914072	0.582060
	C6372	C	0.411146	0.975278	1.016354
	C6373	C	0.473928	0.914367	1.082922
	C6374	C	0.405271	0.988382	0.470083
	C6375	C	0.466764	0.910186	0.582151
	C6376	C	0.407381	0.895659	0.666867
	C6377	C	0.469893	0.958300	0.665997
	C6378	C	0.400127	0.892881	0.832099
	C6379	C	0.462689	0.955273	0.831724
	C6380	C	0.400183	0.892464	0.666776
	C6381	C	0.462687	0.955134	0.666325
	C6382	C	0.407333	0.896117	0.832336
	C6383	C	0.469904	0.958385	0.831423
	N6384	N	0.386948	1.029802	0.951770
	N6385	N	0.443758	0.905422	0.950645
	N6386	N	0.429871	0.935200	0.547407
	N6387	N	0.497053	0.914583	0.547594
	N6388	N	0.429873	0.935181	0.952167
	N6389	N	0.497089	0.914275	0.949587
	N6390	N	0.386972	1.029963	0.548052
	N6391	N	0.443776	0.905538	0.548699
	N6392	N	0.430012	0.905701	0.701373
	N6393	N	0.492550	0.967908	0.700586
	N6394	N	0.379227	0.872084	0.797935
	N6395	N	0.441777	0.934749	0.797955
	N6396	N	0.379208	0.872150	0.701327
	N6397	N	0.441780	0.934660	0.701398
	N6398	N	0.429986	0.905910	0.798209
	N6399	N	0.492517	0.968024	0.797757
	H6400	H	0.518274	0.140101	0.348916
	H6401	H	0.577050	0.029239	0.347321
	H6402	H	0.548338	0.073916	0.150566
	H6403	H	0.613820	0.042725	0.151372
	H6404	H	0.548335	0.074107	0.348565
	H6405	H	0.613889	0.042803	0.347038
	H6406	H	0.518321	0.140252	0.150269
	H6407	H	0.577021	0.028679	0.151016
	H6408	H	0.547293	0.025966	0.097526
	H6409	H	0.609635	0.088945	0.098297
	H6410	H	0.510936	0.007012	0.400631
	H6411	H	0.573441	0.069576	0.400270
	H6412	H	0.510999	0.006673	0.097006
	H6413	H	0.573639	0.068995	0.096762
	H6414	H	0.547124	0.026692	0.400314
	H6415	H	0.609723	0.088701	0.401182
	H6416	H	0.527883	0.118138	0.404886
	H6417	H	0.589062	0.033925	0.349850
	H6418	H	0.539045	0.097200	-0.097470
	H6419	H	0.601467	0.040833	0.149515
	H6420	H	0.538360	0.095176	0.405324
	H6421	H	0.601580	0.040096	0.349134
	H6422	H	0.528592	0.120085	-0.097776
	H6423	H	0.589032	0.033958	0.148775
	H6424	H	0.535029	0.022535	0.100597
	H6425	H	0.597594	0.084741	0.102264
	H6426	H	0.522503	0.016306	0.397395
	H6427	H	0.584984	0.078455	0.396860
	H6428	H	0.522401	0.016884	0.100832
	H6429	H	0.584997	0.079111	0.101195
	H6430	H	0.535066	0.021942	0.397253
	H6431	H	0.597571	0.084214	0.397846
	Co6432	Co	0.623843	0.105951	0.124006
	Co6433	Co	0.561339	0.043306	0.124228
	Co6434	Co	0.498846	-0.019140	0.374301
	Co6435	Co	0.561372	0.043448	0.374267
	C6436	C	0.517314	0.142600	0.422530
	C6437	C	0.575724	0.029590	0.421903
	C6438	C	0.549345	0.071866	0.076694
	C6439	C	0.615100	0.041931	0.077410
	C6440	C	0.549318	0.071854	0.422492
	C6441	C	0.615168	0.041954	0.421633
	C6442	C	0.517272	0.142576	0.076238
	C6443	C	0.575710	0.029441	0.076447
	C6444	C	0.548419	0.026888	0.171937
	C6445	C	0.610855	0.089652	0.172233
	C6446	C	0.510020	0.005101	0.326516
	C6447	C	0.572485	0.067619	0.325946
	C6448	C	0.510001	0.005059	0.171596
	C6449	C	0.572560	0.067356	0.170867
	C6450	C	0.548344	0.027275	0.326615
	C6451	C	0.610932	0.089494	0.326971
	C6452	C	0.521048	0.134451	0.499748
	C6453	C	0.580374	0.029700	-0.001238
	C6454	C	0.545683	0.080170	0.499743
	C6455	C	0.610389	0.043229	-0.000269
	C6456	C	0.543908	0.024919	0.248995
	C6457	C	0.606394	0.087375	0.249916
	C6458	C	0.514016	0.010185	0.248860
	C6459	C	0.576573	0.072544	0.248603
	C6460	C	0.527291	0.120661	0.499959
	C6461	C	0.587986	0.033108	-0.001206
	C6462	C	0.539458	0.093993	0.499955
	C6463	C	0.602658	0.041203	-0.000617
	C6464	C	0.536232	0.022213	0.248781
	C6465	C	0.598741	0.084627	0.249925
	C6466	C	0.521360	0.015677	0.248944
	C6467	C	0.583884	0.078054	0.249046
	C6468	C	0.530267	0.113483	0.446641
	C6469	C	0.591764	0.035179	0.416179
	C6470	C	0.536565	0.101588	-0.054813
	C6471	C	0.598843	0.039257	0.082616
	C6472	C	0.536183	0.100470	0.446640
	C6473	C	0.598912	0.038857	0.415999
	C6474	C	0.530638	0.114583	-0.054800
	C6475	C	0.591725	0.035343	0.082405
	C6476	C	0.532330	0.021081	0.166220
	C6477	C	0.594890	0.083358	0.167409
	C6478	C	0.525177	0.017557	0.331601
	C6479	C	0.587671	0.079854	0.331624
	C6480	C	0.525124	0.017905	0.166365
	C6481	C	0.587674	0.080173	0.166797
	C6482	C	0.532377	0.020712	0.331586
	C6483	C	0.594875	0.083066	0.332091
	N6484	N	0.511945	0.154794	0.451626
	N6485	N	0.568773	0.030408	0.450460
	N6486	N	0.554728	0.059738	0.047153
	N6487	N	0.622051	0.039295	0.048557
	N6488	N	0.554744	0.059767	0.451736
	N6489	N	0.622111	0.039327	0.450631
	N6490	N	0.511905	0.154687	0.046842
	N6491	N	0.568758	0.030291	0.047784
	N6492	N	0.555046	0.030292	0.200819
	N6493	N	0.617483	0.093084	0.200658
	N6494	N	0.504244	-0.002911	0.297506
	N6495	N	0.566714	0.059707	0.296838
	N6496	N	0.504239	-0.002976	0.200896
	N6497	N	0.566768	0.059511	0.200165
	N6498	N	0.555004	0.030524	0.298211
	N6499	N	0.617536	0.093020	0.297765
	H6500	H	0.518337	0.140161	0.848757
	H6501	H	0.577094	0.029391	0.846497
	H6502	H	0.548520	0.074435	0.651016
	H6503	H	0.613828	0.042594	0.652311
	H6504	H	0.548477	0.074486	0.848089
	H6505	H	0.613814	0.042901	0.847711
	H6506	H	0.518435	0.140629	0.650129
	H6507	H	0.577035	0.029006	0.652139
	H6508	H	0.547320	0.026043	0.597335
	H6509	H	0.609706	0.088803	0.597511
	H6510	H	0.511076	0.006751	0.901180
	H6511	H	0.573470	0.069474	0.900783
	H6512	H	0.510961	0.006873	0.596890
	H6513	H	0.573596	0.069083	0.597129
	H6514	H	0.547072	0.026922	0.900113
	H6515	H	0.609676	0.089080	0.900167
	H6516	H	0.527689	0.117338	1.095668
	H6517	H	0.589057	0.034107	0.848786
	H6518	H	0.538827	0.096361	0.594271
	H6519	H	0.601524	0.040854	0.649192
	H6520	H	0.538185	0.094622	1.096090
	H6521	H	0.601536	0.040672	0.849208
	H6522	H	0.528382	0.119464	0.594635
	H6523	H	0.589054	0.034358	0.649579
	H6524	H	0.535107	0.022074	0.600156
	H6525	H	0.597551	0.085009	0.600988
	H6526	H	0.522501	0.016243	0.896480
	H6527	H	0.584967	0.078732	0.896851
	H6528	H	0.522507	0.016415	0.600500
	H6529	H	0.584898	0.079145	0.601227
	H6530	H	0.535095	0.022131	0.895712
	H6531	H	0.597623	0.084267	0.896708
	Co6532	Co	0.623860	0.105862	0.623810
	Co6533	Co	0.561373	0.043356	0.624360
	Co6534	Co	0.498867	-0.019124	0.874698
	Co6535	Co	0.561335	0.043526	0.874273
	C6536	C	0.517294	0.142517	0.921875
	C6537	C	0.575717	0.029726	0.920926
	C6538	C	0.549425	0.072062	0.576935
	C6539	C	0.615145	0.041789	0.576997
	C6540	C	0.549414	0.072168	0.921991
	C6541	C	0.615102	0.042054	0.922014
	C6542	C	0.517402	0.142855	0.576844
	C6543	C	0.575720	0.029478	0.577534
	C6544	C	0.548448	0.026942	0.671489
	C6545	C	0.610931	0.089523	0.671795
	C6546	C	0.510061	0.004986	0.826386
	C6547	C	0.572486	0.067769	0.826721
	C6548	C	0.510013	0.005034	0.671339
	C6549	C	0.572540	0.067536	0.671727
	C6550	C	0.548351	0.027336	0.825913
	C6551	C	0.610912	0.089658	0.826177
	C6552	C	0.520963	0.134286	0.999177
	C6553	C	0.580375	0.029667	0.499673
	C6554	C	0.545709	0.080328	0.999375
	C6555	C	0.610457	0.042960	0.499240
	C6556	C	0.543921	0.024866	0.748590
	C6557	C	0.606426	0.087377	0.748960
	C6558	C	0.514078	0.010100	0.748861
	C6559	C	0.576530	0.072700	0.749202
	C6560	C	0.527244	0.120652	0.999595
	C6561	C	0.587994	0.033035	0.499559
	C6562	C	0.539465	0.094008	0.999627
	C6563	C	0.602718	0.040914	0.499132
	C6564	C	0.536260	0.022130	0.748339
	C6565	C	0.598749	0.084573	0.748738
	C6566	C	0.521421	0.015512	0.748634
	C6567	C	0.583881	0.078132	0.749053
	C6568	C	0.530142	0.113072	1.053624
	C6569	C	0.591737	0.035511	0.915323
	C6570	C	0.536477	0.101213	0.553258
	C6571	C	0.598886	0.039263	0.582685
	C6572	C	0.536085	0.100123	1.053811
	C6573	C	0.598873	0.039280	0.915759
	C6574	C	0.530540	0.114179	0.553113
	C6575	C	0.591752	0.035488	0.582908
	C6576	C	0.532394	0.020818	0.665805
	C6577	C	0.594871	0.083427	0.666367
	C6578	C	0.525196	0.017533	0.830951
	C6579	C	0.587709	0.079942	0.831594
	C6580	C	0.525203	0.017537	0.666155
	C6581	C	0.587660	0.080284	0.666370
	C6582	C	0.532396	0.020724	0.830759
	C6583	C	0.594914	0.083124	0.831297
	N6584	N	0.511902	0.154599	0.951064
	N6585	N	0.568750	0.030418	0.949621
	N6586	N	0.554807	0.059874	0.547476
	N6587	N	0.622104	0.039284	0.548283
	N6588	N	0.554792	0.059961	0.951496
	N6589	N	0.622047	0.039378	0.950913
	N6590	N	0.512009	0.154939	0.547273
	N6591	N	0.568762	0.030320	0.548645
	N6592	N	0.555064	0.030414	0.700755
	N6593	N	0.617554	0.092875	0.700348
	N6594	N	0.504270	-0.002926	0.797497
	N6595	N	0.566713	0.059719	0.797479
	N6596	N	0.504261	-0.002959	0.700776
	N6597	N	0.566734	0.059608	0.701016
	N6598	N	0.554991	0.030670	0.797725
	N6599	N	0.617533	0.093062	0.797394
	H6600	H	0.515414	0.233670	0.347458
	H6601	H	0.580779	0.202684	0.349012
	H6602	H	0.552176	0.247734	0.152563
	H6603	H	0.610963	0.136830	0.150158
	H6604	H	0.552210	0.247975	0.347014
	H6605	H	0.610898	0.136803	0.349338
	H6606	H	0.515274	0.234678	0.152836
	H6607	H	0.580764	0.203046	0.150708
	H6608	H	0.555779	0.207604	0.097479
	H6609	H	0.618239	0.270214	0.097243
	H6610	H	0.519609	0.188031	0.400475
	H6611	H	0.582190	0.250262	0.400466
	H6612	H	0.519618	0.188071	0.097145
	H6613	H	0.581889	0.251058	0.097583
	H6614	H	0.555803	0.207750	0.401295
	H6615	H	0.618198	0.270040	0.400386
	H6616	H	0.527683	0.236312	0.650107
	H6617	H	0.591110	0.182410	0.444680
	H6618	H	0.540163	0.242491	0.150461
	H6619	H	0.601398	0.159396	0.020788
	H6620	H	0.540197	0.243006	0.649783
	H6621	H	0.601555	0.159518	0.444882
	H6622	H	0.527665	0.235977	0.150718
	H6623	H	0.590944	0.182479	0.020256
	H6624	H	0.544440	0.197335	0.101363
	H6625	H	0.606701	0.261088	0.396991
	H6626	H	0.531694	0.192663	0.397017
	H6627	H	0.594199	0.254282	0.100227
	H6628	H	0.531788	0.191847	0.101351
	H6629	H	0.594071	0.255537	0.396878
	H6630	H	0.544325	0.198262	0.397911
	H6631	H	0.606821	0.259984	0.100300
	Co6632	Co	0.630424	0.296183	0.125188
	Co6633	Co	0.567846	0.233855	0.124532
	Co6634	Co	0.505384	0.171277	0.374420
	Co6635	Co	0.567898	0.233795	0.374658
	C6636	C	0.514162	0.234490	0.421696
	C6637	C	0.579826	0.205017	0.422581
	C6638	C	0.553469	0.247256	0.077742
	C6639	C	0.611872	0.134518	0.076594
	C6640	C	0.553514	0.247558	0.421510
	C6641	C	0.611929	0.134496	0.422614
	C6642	C	0.514031	0.235113	0.078332
	C6643	C	0.579836	0.205292	0.076739
	C6644	C	0.556764	0.209406	0.172077
	C6645	C	0.619238	0.271891	0.171609
	C6646	C	0.518408	0.187325	0.326136
	C6647	C	0.580879	0.249752	0.326195
	C6648	C	0.518426	0.187368	0.171563
	C6649	C	0.580762	0.250129	0.171637
	C6650	C	0.556780	0.209423	0.326870
	C6651	C	0.619173	0.271813	0.326423
	C6652	C	0.518841	0.233608	0.499685
	C6653	C	0.583516	0.197086	-0.000478
	C6654	C	0.548854	0.247429	0.499286
	C6655	C	0.608180	0.142714	-0.000440
	C6656	C	0.552777	0.204226	0.249521
	C6657	C	0.615187	0.266735	0.248630
	C6658	C	0.522918	0.189536	0.248973
	C6659	C	0.585317	0.252094	0.248713
	C6660	C	0.526546	0.235867	0.499632
	C6661	C	0.589767	0.183279	-0.000300
	C6662	C	0.541233	0.244066	0.499404
	C6663	C	0.601957	0.156540	-0.000327
	C6664	C	0.545457	0.198696	0.249608
	C6665	C	0.607851	0.261292	0.248524
	C6666	C	0.530598	0.192250	0.249092
	C6667	C	0.592993	0.254753	0.248309
	C6668	C	0.530346	0.237828	0.583284
	C6669	C	0.593161	0.176876	0.468701
	C6670	C	0.537444	0.241372	0.083896
	C6671	C	0.599008	0.163977	0.011409
	C6672	C	0.537470	0.241785	0.583122
	C6673	C	0.599112	0.163953	0.468805
	C6674	C	0.530312	0.237592	0.084111
	C6675	C	0.593083	0.176948	0.011243
	C6676	C	0.541692	0.196403	0.167000
	C6677	C	0.604022	0.259641	0.331355
	C6678	C	0.534435	0.193815	0.331772
	C6679	C	0.596888	0.255773	0.165699
	C6680	C	0.534481	0.193289	0.166690
	C6681	C	0.596821	0.256437	0.331162
	C6682	C	0.541649	0.196888	0.332127
	C6683	C	0.604091	0.258994	0.165880
	N6684	N	0.507221	0.236918	0.450528
	N6685	N	0.574453	0.217196	0.451820
	N6686	N	0.560434	0.246672	0.048727
	N6687	N	0.617248	0.122329	0.047143
	N6688	N	0.560479	0.246925	0.450043
	N6689	N	0.617310	0.122333	0.451541
	N6690	N	0.507103	0.237488	0.049466
	N6691	N	0.574437	0.217386	0.047477
	N6692	N	0.562541	0.217469	0.201227
	N6693	N	0.625018	0.279858	0.201136
	N6694	N	0.511770	0.184062	0.297355
	N6695	N	0.574217	0.246597	0.297881
	N6696	N	0.511790	0.184056	0.200267
	N6697	N	0.574155	0.246793	0.200834
	N6698	N	0.562527	0.217521	0.297848
	N6699	N	0.624940	0.279890	0.297698
	H6700	H	0.515295	0.233492	0.848123
	H6701	H	0.580777	0.202952	0.848158
	H6702	H	0.552228	0.248133	0.651647
	H6703	H	0.610959	0.136665	0.650122
	H6704	H	0.552075	0.247824	0.847287
	H6705	H	0.610950	0.136951	0.848786
	H6706	H	0.515459	0.234125	0.652009
	H6707	H	0.580818	0.202961	0.649972
	H6708	H	0.555641	0.208126	0.597031
	H6709	H	0.618253	0.270283	0.598475
	H6710	H	0.519571	0.187819	0.901184
	H6711	H	0.582079	0.250628	0.900257
	H6712	H	0.519582	0.188136	0.597592
	H6713	H	0.582104	0.250543	0.597781
	H6714	H	0.555840	0.207731	0.901259
	H6715	H	0.618359	0.270016	0.902050
	H6716	H	0.527526	0.236532	0.850386
	H6717	H	0.590282	0.180270	0.978872
	H6718	H	0.540124	0.243051	0.348847
	H6719	H	0.600679	0.157139	0.553763
	H6720	H	0.540059	0.242977	0.850032
	H6721	H	0.600756	0.157315	0.978363
	H6722	H	0.527676	0.236475	0.349124
	H6723	H	0.590227	0.180123	0.553527
	H6724	H	0.544259	0.198288	0.898117
	H6725	H	0.606969	0.259695	0.602163
	H6726	H	0.531720	0.191885	0.600883
	H6727	H	0.594115	0.255635	0.897902
	H6728	H	0.531665	0.192468	0.898127
	H6729	H	0.594334	0.253772	0.602095
	H6730	H	0.544301	0.197827	0.601098
	H6731	H	0.606756	0.261243	0.898451
	Co6732	Co	0.630414	0.296265	0.624648
	Co6733	Co	0.567886	0.233851	0.623969
	Co6734	Co	0.505374	0.171131	0.874391
	Co6735	Co	0.567865	0.233968	0.874590
	C6736	C	0.514029	0.234510	0.923257
	C6737	C	0.579833	0.205250	0.922357
	C6738	C	0.553521	0.247647	0.576688
	C6739	C	0.611948	0.134464	0.576588
	C6740	C	0.553432	0.247395	0.922147
	C6741	C	0.611877	0.134600	0.922371
	C6742	C	0.514147	0.234751	0.577363
	C6743	C	0.579837	0.205146	0.576544
	C6744	C	0.556681	0.209624	0.671750
	C6745	C	0.619281	0.271907	0.672620
	C6746	C	0.518359	0.187313	0.826774
	C6747	C	0.580882	0.250033	0.826505
	C6748	C	0.518359	0.187466	0.672001
	C6749	C	0.580894	0.249954	0.672305
	C6750	C	0.556746	0.209561	0.826561
	C6751	C	0.619323	0.271702	0.827087
	C6752	C	0.518731	0.233730	1.000922
	C6753	C	0.583513	0.196783	0.499502
	C6754	C	0.548793	0.247179	1.000082
	C6755	C	0.608270	0.142745	0.499739
	C6756	C	0.552681	0.204485	0.749298
	C6757	C	0.615280	0.266720	0.749821
	C6758	C	0.522858	0.189524	0.749491
	C6759	C	0.585394	0.252009	0.749345
	C6760	C	0.526473	0.235845	1.000740
	C6761	C	0.589777	0.183069	0.499127
	C6762	C	0.541175	0.243771	1.000156
	C6763	C	0.602009	0.156403	0.499391
	C6764	C	0.545374	0.198853	0.749474
	C6765	C	0.607949	0.261175	0.750069
	C6766	C	0.530535	0.192232	0.749531
	C6767	C	0.593089	0.254659	0.749773
	C6768	C	0.530246	0.237841	0.916874
	C6769	C	0.592712	0.175806	0.988025
	C6770	C	0.537466	0.241712	0.415749
	C6771	C	0.598619	0.162579	0.529970
	C6772	C	0.537394	0.241583	0.916690
	C6773	C	0.598630	0.162813	0.988061
	C6774	C	0.530344	0.237796	0.415836
	C6775	C	0.592681	0.175576	0.529557
	C6776	C	0.541562	0.197011	0.832390
	C6777	C	0.604218	0.258722	0.667549
	C6778	C	0.534408	0.193406	0.666763
	C6779	C	0.596888	0.256496	0.832527
	C6780	C	0.534368	0.193749	0.832495
	C6781	C	0.597015	0.255527	0.667308
	C6782	C	0.541604	0.196639	0.666804
	C6783	C	0.604094	0.259675	0.832825
	N6784	N	0.507093	0.237165	0.951713
	N6785	N	0.574425	0.217380	0.951593
	N6786	N	0.560479	0.246998	0.548280
	N6787	N	0.617309	0.122294	0.547139
	N6788	N	0.560420	0.246709	0.950538
	N6789	N	0.617254	0.122393	0.951605
	N6790	N	0.507211	0.237070	0.548201
	N6791	N	0.574462	0.217297	0.547160
	N6792	N	0.562442	0.217699	0.700549
	N6793	N	0.625048	0.279958	0.701562
	N6794	N	0.511723	0.183976	0.797861
	N6795	N	0.574241	0.246700	0.797875
	N6796	N	0.511727	0.184074	0.700779
	N6797	N	0.574259	0.246658	0.700683
	N6798	N	0.562492	0.217645	0.797316
	N6799	N	0.625074	0.279795	0.798132
	H6800	H	0.509560	0.321441	0.347863
	H6801	H	0.577964	0.296451	0.348373
	H6802	H	0.546757	0.330927	0.151953
	H6803	H	0.614729	0.310436	0.151979
	H6804	H	0.546831	0.330704	0.347796
	H6805	H	0.614663	0.310211	0.348121
	H6806	H	0.509505	0.321544	0.153230
	H6807	H	0.577900	0.296731	0.152368
	H6808	H	0.549417	0.290663	0.097039
	H6809	H	0.611756	0.353486	0.097471
	H6810	H	0.512727	0.273835	0.402612
	H6811	H	0.575163	0.336624	0.402282
	H6812	H	0.512518	0.274788	0.098183
	H6813	H	0.575045	0.337285	0.098958
	H6814	H	0.549344	0.290818	0.401380
	H6815	H	0.611819	0.353310	0.402261
	H6816	H	0.521816	0.323481	0.349004
	H6817	H	0.590195	0.298889	0.349817
	H6818	H	0.534458	0.328037	0.151078
	H6819	H	0.602745	0.304805	0.150240
	H6820	H	0.534476	0.328759	0.348632
	H6821	H	0.602642	0.305539	0.350120
	H6822	H	0.521816	0.322914	0.151040
	H6823	H	0.590271	0.298468	0.150561
	H6824	H	0.537293	0.285547	0.399892
	H6825	H	0.599795	0.347764	0.400631
	H6826	H	0.524638	0.280333	0.098434
	H6827	H	0.587092	0.342688	0.099742
	H6828	H	0.524596	0.280913	0.400477
	H6829	H	0.587053	0.343402	0.401051
	H6830	H	0.537353	0.284652	0.098947
	H6831	H	0.599762	0.347296	0.099486
	Co6832	Co	0.624833	0.375705	0.124496
	Co6833	Co	0.562316	0.313413	0.124166
	Co6834	Co	0.499880	0.250631	0.374872
	Co6835	Co	0.562368	0.313281	0.375217
	C6836	C	0.508271	0.322212	0.422634
	C6837	C	0.576660	0.297151	0.422331
	C6838	C	0.548022	0.329754	0.077424
	C6839	C	0.616068	0.309899	0.077347
	C6840	C	0.548095	0.329892	0.421986
	C6841	C	0.615993	0.309777	0.422983
	C6842	C	0.508221	0.322234	0.078345
	C6843	C	0.576628	0.297351	0.077696
	C6844	C	0.550476	0.292104	0.172138
	C6845	C	0.612884	0.354665	0.172339
	C6846	C	0.511595	0.272551	0.327352
	C6847	C	0.573999	0.335279	0.328107
	C6848	C	0.511473	0.273114	0.172404
	C6849	C	0.573970	0.335484	0.173051
	C6850	C	0.550451	0.292127	0.326941
	C6851	C	0.612903	0.354580	0.327760
	C6852	C	0.512966	0.321046	0.500220
	C6853	C	0.581336	0.296200	-0.000007
	C6854	C	0.543385	0.331225	0.499386
	C6855	C	0.611381	0.309677	-0.000586
	C6856	C	0.546120	0.288608	0.249426
	C6857	C	0.608557	0.351126	0.250055
	C6858	C	0.515819	0.276632	0.249904
	C6859	C	0.578265	0.339189	0.250803
	C6860	C	0.520743	0.322793	0.499831
	C6861	C	0.589050	0.298282	-0.000040
	C6862	C	0.535633	0.329343	0.499329
	C6863	C	0.603790	0.306211	-0.000336
	C6864	C	0.538488	0.285305	0.249316
	C6865	C	0.600951	0.347690	0.250121
	C6866	C	0.523401	0.280358	0.249572
	C6867	C	0.585871	0.342815	0.250570
	C6868	C	0.524551	0.324543	0.415769
	C6869	C	0.592849	0.300288	0.416656
	C6870	C	0.531712	0.327322	0.084055
	C6871	C	0.600058	0.303753	0.083291
	C6872	C	0.531779	0.327627	0.415645
	C6873	C	0.599968	0.304179	0.416738
	C6874	C	0.524502	0.324250	0.084182
	C6875	C	0.592895	0.300054	0.083584
	C6876	C	0.534578	0.284380	0.332987
	C6877	C	0.597066	0.346654	0.333909
	C6878	C	0.527311	0.281524	0.165639
	C6879	C	0.589772	0.343855	0.166735
	C6880	C	0.527289	0.281862	0.333280
	C6881	C	0.589764	0.344286	0.334131
	C6882	C	0.534609	0.283844	0.165696
	C6883	C	0.597062	0.346267	0.166625
	N6884	N	0.501342	0.324998	0.451643
	N6885	N	0.569708	0.299586	0.451103
	N6886	N	0.554965	0.327044	0.048276
	N6887	N	0.623016	0.309151	0.048754
	N6888	N	0.555023	0.327074	0.451058
	N6889	N	0.622949	0.308999	0.451245
	N6890	N	0.501275	0.324951	0.049379
	N6891	N	0.569688	0.299679	0.049022
	N6892	N	0.556754	0.297871	0.201118
	N6893	N	0.619149	0.360436	0.201389
	N6894	N	0.505419	0.266332	0.298820
	N6895	N	0.567803	0.329060	0.298821
	N6896	N	0.505305	0.266822	0.201190
	N6897	N	0.567791	0.329129	0.201757
	N6898	N	0.556719	0.297970	0.298052
	N6899	N	0.619149	0.360420	0.298526
	H6900	H	0.509480	0.320926	0.848131
	H6901	H	0.577905	0.296178	0.847763
	H6902	H	0.546823	0.331028	0.652014
	H6903	H	0.614690	0.310355	0.652461
	H6904	H	0.546680	0.330186	0.847308
	H6905	H	0.614739	0.310217	0.847319
	H6906	H	0.509575	0.321344	0.652715
	H6907	H	0.577955	0.296323	0.651631
	H6908	H	0.549186	0.291104	0.597912
	H6909	H	0.611746	0.353362	0.597856
	H6910	H	0.512583	0.274153	0.901366
	H6911	H	0.575157	0.336337	0.901522
	H6912	H	0.512601	0.274071	0.597478
	H6913	H	0.575006	0.336762	0.597299
	H6914	H	0.549338	0.290648	0.901788
	H6915	H	0.611736	0.353343	0.902150
	H6916	H	0.521691	0.323854	0.849383
	H6917	H	0.590156	0.299115	0.849560
	H6918	H	0.534535	0.328545	0.650298
	H6919	H	0.602715	0.304989	0.650660
	H6920	H	0.534359	0.329124	0.849005
	H6921	H	0.602635	0.305619	0.848834
	H6922	H	0.521917	0.323221	0.650675
	H6923	H	0.590201	0.298374	0.650502
	H6924	H	0.537283	0.284708	0.599028
	H6925	H	0.599787	0.347249	0.598840
	H6926	H	0.524472	0.280948	0.900559
	H6927	H	0.587021	0.343394	0.900112
	H6928	H	0.524548	0.280421	0.598885
	H6929	H	0.587084	0.342648	0.598773
	H6930	H	0.537199	0.285400	0.900808
	H6931	H	0.599746	0.347946	0.900103
	Co6932	Co	0.624841	0.375744	0.624263
	Co6933	Co	0.562300	0.313246	0.624544
	Co6934	Co	0.499738	0.250796	0.875343
	Co6935	Co	0.562320	0.313093	0.875091
	C6936	C	0.508207	0.321900	0.922770
	C6937	C	0.576619	0.297110	0.922594
	C6938	C	0.548065	0.330053	0.577215
	C6939	C	0.616013	0.309784	0.577955
	C6940	C	0.547987	0.329427	0.922239
	C6941	C	0.616073	0.309815	0.921773
	C6942	C	0.508277	0.322252	0.578169
	C6943	C	0.576638	0.297069	0.577530
	C6944	C	0.550339	0.292289	0.672124
	C6945	C	0.612875	0.354738	0.671980
	C6946	C	0.511505	0.272707	0.827475
	C6947	C	0.574048	0.334936	0.827015
	C6948	C	0.511524	0.272652	0.672177
	C6949	C	0.573988	0.335217	0.671947
	C6950	C	0.550398	0.292092	0.827153
	C6951	C	0.612891	0.354649	0.827434
	C6952	C	0.512895	0.320871	1.000427
	C6953	C	0.581346	0.296100	0.500046
	C6954	C	0.543313	0.330836	0.999949
	C6955	C	0.611329	0.309729	0.500578
	C6956	C	0.546026	0.288827	0.749838
	C6957	C	0.608559	0.351261	0.749753
	C6958	C	0.515782	0.276524	0.749849
	C6959	C	0.578297	0.338954	0.749515
	C6960	C	0.520648	0.322765	1.000223
	C6961	C	0.589058	0.298262	0.500270
	C6962	C	0.535529	0.329182	1.000010
	C6963	C	0.603723	0.306356	0.500513
	C6964	C	0.538408	0.285374	0.750109
	C6965	C	0.600934	0.347844	0.749685
	C6966	C	0.523370	0.280333	0.749830
	C6967	C	0.585883	0.342750	0.749495
	C6968	C	0.524452	0.324686	0.916122
	C6969	C	0.592855	0.300318	0.916287
	C6970	C	0.531822	0.327520	0.583299
	C6971	C	0.599993	0.303835	0.584101
	C6972	C	0.531668	0.327760	0.916092
	C6973	C	0.600006	0.304132	0.916074
	C6974	C	0.524617	0.324370	0.583707
	C6975	C	0.592863	0.299960	0.584094
	C6976	C	0.534532	0.284024	0.665966
	C6977	C	0.597067	0.346328	0.665769
	C6978	C	0.527228	0.281760	0.833803
	C6979	C	0.589759	0.344264	0.833123
	C6980	C	0.527255	0.281524	0.665874
	C6981	C	0.589784	0.343813	0.665647
	C6982	C	0.534500	0.284288	0.833893
	C6983	C	0.597035	0.346775	0.833342
	N6984	N	0.501268	0.324741	0.951777
	N6985	N	0.569679	0.299543	0.951273
	N6986	N	0.555008	0.327140	0.548585
	N6987	N	0.622957	0.309061	0.549287
	N6988	N	0.554933	0.326801	0.950770
	N6989	N	0.623018	0.309130	0.950575
	N6990	N	0.501332	0.324948	0.549103
	N6991	N	0.569684	0.299552	0.548614
	N6992	N	0.556653	0.297894	0.700993
	N6993	N	0.619192	0.360420	0.701205
	N6994	N	0.505350	0.266308	0.798391
	N6995	N	0.567853	0.328741	0.798237
	N6996	N	0.505372	0.266277	0.701244
	N6997	N	0.567832	0.328841	0.701317
	N6998	N	0.556698	0.297738	0.798274
	N6999	N	0.619159	0.360451	0.798372
	H7000	H	0.504135	0.404127	0.348626
	H7001	H	0.572109	0.383752	0.347638
	H7002	H	0.540853	0.418461	0.152461
	H7003	H	0.609278	0.393053	0.152857
	H7004	H	0.540898	0.417995	0.348214
	H7005	H	0.609318	0.393074	0.347118
	H7006	H	0.504161	0.404169	0.152215
	H7007	H	0.572017	0.384005	0.152672
	H7008	H	0.543724	0.378057	0.098399
	H7009	H	0.606193	0.440668	0.098401
	H7010	H	0.507059	0.360963	0.402319
	H7011	H	0.569532	0.423639	0.402702
	H7012	H	0.507014	0.361347	0.098623
	H7013	H	0.569430	0.423957	0.098396
	H7014	H	0.543825	0.377496	0.402113
	H7015	H	0.606203	0.440587	0.401710
	H7016	H	0.516179	0.409335	0.650841
	H7017	H	0.584337	0.386271	0.349277
	H7018	H	0.528631	0.415441	0.150414
	H7019	H	0.596983	0.390937	0.151733
	H7020	H	0.528682	0.415872	0.651057
	H7021	H	0.596944	0.391506	0.349027
	H7022	H	0.516096	0.408891	0.150172
	H7023	H	0.584349	0.385664	0.151565
	H7024	H	0.531776	0.371304	0.099701
	H7025	H	0.594204	0.433909	0.099493
	H7026	H	0.519038	0.366981	0.401169
	H7027	H	0.581445	0.429987	0.401048
	H7028	H	0.519088	0.366727	0.100272
	H7029	H	0.581481	0.429277	0.099785
	H7030	H	0.531760	0.371496	0.400821
	H7031	H	0.594115	0.434602	0.400930
	Co7032	Co	0.618947	0.464001	0.125187
	Co7033	Co	0.556469	0.401463	0.124715
	Co7034	Co	0.494008	0.338777	0.375719
	Co7035	Co	0.556498	0.401140	0.375631
	C7036	C	0.502858	0.404555	0.422934
	C7037	C	0.570810	0.384812	0.422541
	C7038	C	0.542149	0.417505	0.078051
	C7039	C	0.610558	0.392248	0.077848
	C7040	C	0.542218	0.417283	0.422609
	C7041	C	0.610585	0.392213	0.422103
	C7042	C	0.502781	0.404569	0.078033
	C7043	C	0.570755	0.384829	0.077930
	C7044	C	0.544808	0.379399	0.172861
	C7045	C	0.607257	0.442014	0.172713
	C7046	C	0.505933	0.359829	0.328117
	C7047	C	0.568373	0.422426	0.328283
	C7048	C	0.505903	0.360037	0.172988
	C7049	C	0.568314	0.422606	0.173120
	C7050	C	0.544869	0.379153	0.327628
	C7051	C	0.607242	0.441972	0.327302
	C7052	C	0.507501	0.404826	0.500669
	C7053	C	0.575438	0.383649	0.000213
	C7054	C	0.537547	0.418210	0.500510
	C7055	C	0.605872	0.393379	0.000246
	C7056	C	0.540543	0.375444	0.250341
	C7057	C	0.602939	0.438235	0.249797
	C7058	C	0.510267	0.363290	0.250604
	C7059	C	0.572669	0.426040	0.250434
	C7060	C	0.515113	0.408264	0.500438
	C7061	C	0.583219	0.385327	0.000336
	C7062	C	0.529809	0.416222	0.500712
	C7063	C	0.598100	0.391646	0.000411
	C7064	C	0.532978	0.371713	0.250279
	C7065	C	0.595360	0.434600	0.249924
	C7066	C	0.517888	0.366638	0.250685
	C7067	C	0.580293	0.429492	0.250141
	C7068	C	0.518874	0.410615	0.584109
	C7069	C	0.587048	0.387255	0.416193
	C7070	C	0.525944	0.414132	0.083659
	C7071	C	0.594277	0.389876	0.084620
	C7072	C	0.526004	0.414391	0.584308
	C7073	C	0.594254	0.390339	0.416048
	C7074	C	0.518801	0.410358	0.083526
	C7075	C	0.587065	0.386830	0.084675
	C7076	C	0.529099	0.370343	0.166705
	C7077	C	0.591484	0.433075	0.166364
	C7078	C	0.521774	0.367915	0.334422
	C7079	C	0.584161	0.430916	0.333981
	C7080	C	0.521821	0.367806	0.166988
	C7081	C	0.584207	0.430547	0.166403
	C7082	C	0.529075	0.370353	0.333813
	C7083	C	0.591445	0.433467	0.333700
	N7084	N	0.495887	0.405263	0.451659
	N7085	N	0.563848	0.387375	0.451254
	N7086	N	0.549108	0.415120	0.049241
	N7087	N	0.617489	0.389544	0.048743
	N7088	N	0.549168	0.414890	0.451396
	N7089	N	0.617509	0.389653	0.450826
	N7090	N	0.495813	0.405137	0.049589
	N7091	N	0.563802	0.387670	0.048751
	N7092	N	0.550977	0.385690	0.201441
	N7093	N	0.613433	0.448252	0.201414
	N7094	N	0.499636	0.354197	0.299179
	N7095	N	0.562088	0.416593	0.299197
	N7096	N	0.499608	0.354389	0.201833
	N7097	N	0.562052	0.416786	0.201964
	N7098	N	0.551034	0.385491	0.298609
	N7099	N	0.613434	0.448212	0.298845
	H7100	H	0.504062	0.403916	0.847465
	H7101	H	0.572046	0.384101	0.848135
	H7102	H	0.540935	0.418135	0.652451
	H7103	H	0.609332	0.393527	0.651568
	H7104	H	0.540857	0.418148	0.847894
	H7105	H	0.609278	0.393041	0.848318
	H7106	H	0.504147	0.404376	0.653226
	H7107	H	0.572029	0.383676	0.652721
	H7108	H	0.543775	0.377733	0.598204
	H7109	H	0.606303	0.440138	0.599082
	H7110	H	0.507112	0.360827	0.903579
	H7111	H	0.569415	0.423931	0.902964
	H7112	H	0.506985	0.361340	0.598004
	H7113	H	0.569557	0.423616	0.598740
	H7114	H	0.543718	0.378028	0.901539
	H7115	H	0.606120	0.441010	0.902954
	H7116	H	0.516095	0.409338	0.849469
	H7117	H	0.584333	0.386084	0.849417
	H7118	H	0.528656	0.416083	0.350230
	H7119	H	0.597006	0.391126	0.651169
	H7120	H	0.528564	0.416059	0.849380
	H7121	H	0.596959	0.391152	0.849272
	H7122	H	0.516143	0.409568	0.349955
	H7123	H	0.584417	0.385845	0.651331
	H7124	H	0.531783	0.371611	0.599600
	H7125	H	0.594286	0.433882	0.600132
	H7126	H	0.519067	0.367290	0.901004
	H7127	H	0.581613	0.429314	0.901967
	H7128	H	0.519070	0.366927	0.599069
	H7129	H	0.581527	0.429501	0.600293
	H7130	H	0.531800	0.371717	0.901181
	H7131	H	0.594267	0.433924	0.901698
	Co7132	Co	0.619004	0.463856	0.625354
	Co7133	Co	0.556516	0.401245	0.624623
	Co7134	Co	0.493973	0.338742	0.875834
	Co7135	Co	0.556468	0.401434	0.875414
	C7136	C	0.502746	0.404501	0.922514
	C7137	C	0.570778	0.384972	0.922509
	C7138	C	0.542225	0.417188	0.577884
	C7139	C	0.610594	0.392433	0.577174
	C7140	C	0.542145	0.417391	0.922682
	C7141	C	0.610555	0.392202	0.922472
	C7142	C	0.502855	0.404667	0.578339
	C7143	C	0.570793	0.384611	0.577845
	C7144	C	0.544819	0.379408	0.672540
	C7145	C	0.607319	0.441841	0.673520
	C7146	C	0.505964	0.359644	0.828088
	C7147	C	0.568373	0.422498	0.828090
	C7148	C	0.505912	0.359920	0.672831
	C7149	C	0.568407	0.422374	0.673123
	C7150	C	0.544815	0.379481	0.827300
	C7151	C	0.607236	0.442175	0.828478
	C7152	C	0.507413	0.404775	1.000123
	C7153	C	0.575482	0.383574	0.500213
	C7154	C	0.537456	0.418465	1.000502
	C7155	C	0.605899	0.393486	0.499606
	C7156	C	0.540543	0.375591	0.749957
	C7157	C	0.603007	0.438157	0.750736
	C7158	C	0.510279	0.363300	0.750433
	C7159	C	0.572745	0.425893	0.750614
	C7160	C	0.515044	0.408183	0.999803
	C7161	C	0.583238	0.385404	0.500242
	C7162	C	0.529738	0.416266	1.000145
	C7163	C	0.598123	0.391843	0.499842
	C7164	C	0.532959	0.371846	0.750230
	C7165	C	0.595454	0.434298	0.750718
	C7166	C	0.517887	0.366779	0.749982
	C7167	C	0.580377	0.429249	0.750785
	C7168	C	0.518794	0.410600	0.916104
	C7169	C	0.587048	0.387110	0.916310
	C7170	C	0.525985	0.414513	0.416811
	C7171	C	0.594302	0.390112	0.584032
	C7172	C	0.525916	0.414493	0.916313
	C7173	C	0.594264	0.390076	0.916344
	C7174	C	0.518856	0.410717	0.416756
	C7175	C	0.587099	0.386988	0.584173
	C7176	C	0.529053	0.370488	0.666529
	C7177	C	0.591567	0.432891	0.667111
	C7178	C	0.521780	0.368212	0.833662
	C7179	C	0.584283	0.430454	0.834683
	C7180	C	0.521777	0.367925	0.666249
	C7181	C	0.584263	0.430493	0.667183
	C7182	C	0.529072	0.370642	0.834065
	C7183	C	0.591560	0.432983	0.834737
	N7184	N	0.495793	0.405059	0.951479
	N7185	N	0.563825	0.387697	0.951439
	N7186	N	0.549162	0.414891	0.548947
	N7187	N	0.617533	0.389743	0.548530
	N7188	N	0.549109	0.415049	0.951445
	N7189	N	0.617494	0.389509	0.951138
	N7190	N	0.495893	0.405309	0.549952
	N7191	N	0.563829	0.387345	0.548789
	N7192	N	0.550999	0.385695	0.701586
	N7193	N	0.613478	0.448186	0.702202
	N7194	N	0.499676	0.353896	0.799150
	N7195	N	0.562118	0.416695	0.798741
	N7196	N	0.499664	0.354013	0.701739
	N7197	N	0.562136	0.416652	0.701552
	N7198	N	0.551002	0.385703	0.798452
	N7199	N	0.613411	0.448482	0.799489
	H7200	H	0.510465	0.584823	0.350224
	H7201	H	0.566601	0.466775	0.349043
	H7202	H	0.538533	0.513429	0.150646
	H7203	H	0.603341	0.480874	0.152753
	H7204	H	0.538377	0.512885	0.350183
	H7205	H	0.603381	0.480734	0.348885
	H7206	H	0.510685	0.585503	0.147873
	H7207	H	0.566597	0.467013	0.152918
	H7208	H	0.536641	0.464293	0.098777
	H7209	H	0.599213	0.526415	0.100693
	H7210	H	0.500653	0.444175	0.401906
	H7211	H	0.563044	0.506907	0.401911
	H7212	H	0.500555	0.444276	0.098879
	H7213	H	0.563051	0.506972	0.099059
	H7214	H	0.536747	0.463815	0.400974
	H7215	H	0.599140	0.527114	0.402454
	H7216	H	0.520037	0.562529	0.500771
	H7217	H	0.578568	0.472349	0.350506
	H7218	H	0.530149	0.538408	0.045744
	H7219	H	0.591095	0.478184	0.150753
	H7220	H	0.529784	0.537659	0.501072
	H7221	H	0.591108	0.478617	0.350520
	H7222	H	0.520456	0.563512	0.044929
	H7223	H	0.578650	0.471599	0.150712
	H7224	H	0.524688	0.459436	0.102105
	H7225	H	0.586998	0.522895	0.399419
	H7226	H	0.511937	0.454658	0.397961
	H7227	H	0.574550	0.516224	0.103246
	H7228	H	0.512091	0.453619	0.102265
	H7229	H	0.574402	0.517036	0.398909
	H7230	H	0.524581	0.460386	0.397978
	H7231	H	0.587158	0.522002	0.103773
	Co7232	Co	0.613386	0.543447	0.126027
	Co7233	Co	0.550907	0.480951	0.125207
	Co7234	Co	0.488476	0.418267	0.375845
	Co7235	Co	0.550904	0.480907	0.375460
	C7236	C	0.509689	0.587522	0.423684
	C7237	C	0.565300	0.467327	0.423381
	C7238	C	0.539441	0.510881	0.077157
	C7239	C	0.604649	0.480056	0.077926
	C7240	C	0.539373	0.510625	0.423686
	C7241	C	0.604678	0.479965	0.423385
	C7242	C	0.509794	0.587919	0.075614
	C7243	C	0.565286	0.467313	0.078336
	C7244	C	0.537880	0.465025	0.173018
	C7245	C	0.600435	0.527251	0.174606
	C7246	C	0.499619	0.442493	0.327555
	C7247	C	0.562065	0.505167	0.328064
	C7248	C	0.499576	0.442588	0.172879
	C7249	C	0.562071	0.505234	0.173345
	C7250	C	0.537934	0.464668	0.327533
	C7251	C	0.600400	0.527656	0.328713
	C7252	C	0.513102	0.578687	0.500181
	C7253	C	0.569940	0.467325	0.000473
	C7254	C	0.535980	0.519564	0.500686
	C7255	C	0.599947	0.481133	0.000528
	C7256	C	0.533416	0.462712	0.250204
	C7257	C	0.595902	0.525296	0.251716
	C7258	C	0.503637	0.447627	0.250247
	C7259	C	0.566081	0.510349	0.250879
	C7260	C	0.518831	0.563546	0.500199
	C7261	C	0.577537	0.470713	0.000368
	C7262	C	0.530146	0.534455	0.500713
	C7263	C	0.592229	0.478891	0.000475
	C7264	C	0.525753	0.459875	0.250281
	C7265	C	0.588239	0.522516	0.251625
	C7266	C	0.510950	0.453227	0.250181
	C7267	C	0.573396	0.515885	0.251166
	C7268	C	0.521962	0.556633	0.500554
	C7269	C	0.581312	0.473348	0.417012
	C7270	C	0.527692	0.543043	0.025562
	C7271	C	0.588421	0.476875	0.083949
	C7272	C	0.527460	0.542519	0.500842
	C7273	C	0.588432	0.477168	0.417167
	C7274	C	0.522212	0.557214	0.025380
	C7275	C	0.581302	0.472934	0.083821
	C7276	C	0.521939	0.458303	0.167553
	C7277	C	0.584344	0.521381	0.333757
	C7278	C	0.514693	0.455490	0.332749
	C7279	C	0.577233	0.517648	0.168877
	C7280	C	0.514746	0.455070	0.167636
	C7281	C	0.577139	0.518163	0.333565
	C7282	C	0.521883	0.458773	0.332896
	C7283	C	0.584431	0.520910	0.169208
	N7284	N	0.504820	0.601070	0.452390
	N7285	N	0.558332	0.467964	0.451656
	N7286	N	0.544523	0.497885	0.048232
	N7287	N	0.611597	0.477753	0.049329
	N7288	N	0.544478	0.497704	0.452933
	N7289	N	0.611638	0.477471	0.452316
	N7290	N	0.504895	0.601325	0.046819
	N7291	N	0.558332	0.467934	0.049942
	N7292	N	0.544515	0.468341	0.201890
	N7293	N	0.607084	0.530576	0.203065
	N7294	N	0.493843	0.434480	0.298536
	N7295	N	0.556321	0.497088	0.298748
	N7296	N	0.493839	0.434476	0.202186
	N7297	N	0.556322	0.497115	0.202292
	N7298	N	0.544540	0.468172	0.298643
	N7299	N	0.607023	0.530940	0.299973
	H7300	H	0.510687	0.585446	0.851757
	H7301	H	0.566589	0.466530	0.847742
	H7302	H	0.538619	0.513412	0.651437
	H7303	H	0.603379	0.480741	0.653093
	H7304	H	0.538575	0.513171	0.849761
	H7305	H	0.603324	0.481088	0.848452
	H7306	H	0.510748	0.585664	0.649788
	H7307	H	0.566599	0.466869	0.653249
	H7308	H	0.536601	0.464818	0.599715
	H7309	H	0.599343	0.526631	0.600585
	H7310	H	0.500618	0.444202	0.902712
	H7311	H	0.563187	0.506548	0.902971
	H7312	H	0.500516	0.444394	0.598586
	H7313	H	0.563077	0.507028	0.598900
	H7314	H	0.536640	0.464430	0.901813
	H7315	H	0.599109	0.527595	0.901712
	H7316	H	0.518886	0.559673	0.955710
	H7317	H	0.578561	0.471996	0.850123
	H7318	H	0.528908	0.535405	0.499906
	H7319	H	0.591164	0.478284	0.650889
	H7320	H	0.528580	0.534619	0.955708
	H7321	H	0.591067	0.478573	0.849924
	H7322	H	0.519217	0.560429	0.499937
	H7323	H	0.578646	0.471876	0.650813
	H7324	H	0.524537	0.460255	0.897612
	H7325	H	0.587121	0.522461	0.898105
	H7326	H	0.511937	0.454275	0.602981
	H7327	H	0.574565	0.516946	0.602500
	H7328	H	0.511968	0.454317	0.898239
	H7329	H	0.574569	0.516370	0.898379
	H7330	H	0.524525	0.460254	0.602805
	H7331	H	0.587145	0.522800	0.602915
	Co7332	Co	0.613427	0.543714	0.626284
	Co7333	Co	0.550970	0.481040	0.625440
	Co7334	Co	0.488435	0.418263	0.875980
	Co7335	Co	0.550934	0.480955	0.875693
	C7336	C	0.509789	0.587861	0.924127
	C7337	C	0.565273	0.467046	0.922702
	C7338	C	0.539473	0.510855	0.577811
	C7339	C	0.604673	0.479925	0.578463
	C7340	C	0.539461	0.510736	0.923404
	C7341	C	0.604633	0.480242	0.922882
	C7342	C	0.509816	0.587921	0.576409
	C7343	C	0.565303	0.467329	0.578378
	C7344	C	0.537853	0.465330	0.673065
	C7345	C	0.600478	0.527444	0.674140
	C7346	C	0.499616	0.442533	0.828548
	C7347	C	0.562169	0.505091	0.827936
	C7348	C	0.499565	0.442614	0.673138
	C7349	C	0.562132	0.505287	0.673289
	C7350	C	0.537870	0.465142	0.827658
	C7351	C	0.600376	0.527927	0.828004
	C7352	C	0.513130	0.578730	1.000056
	C7353	C	0.569939	0.467527	0.500836
	C7354	C	0.535977	0.519624	1.000195
	C7355	C	0.599996	0.481021	0.500864
	C7356	C	0.533378	0.463146	0.750304
	C7357	C	0.595948	0.525491	0.750907
	C7358	C	0.503584	0.447689	0.750670
	C7359	C	0.566155	0.510242	0.750603
	C7360	C	0.518891	0.563673	1.000239
	C7361	C	0.577562	0.470954	0.500606
	C7362	C	0.530167	0.534555	1.000327
	C7363	C	0.592251	0.478951	0.500753
	C7364	C	0.525719	0.460305	0.750217
	C7365	C	0.588284	0.522650	0.750608
	C7366	C	0.510882	0.453377	0.750351
	C7367	C	0.573471	0.515879	0.750451
	C7368	C	0.521345	0.555149	0.975219
	C7369	C	0.581284	0.473095	0.916773
	C7370	C	0.526999	0.541329	0.500465
	C7371	C	0.588466	0.477066	0.584332
	C7372	C	0.526822	0.540970	0.975205
	C7373	C	0.588415	0.476985	0.916677
	C7374	C	0.521503	0.555451	0.500142
	C7375	C	0.581356	0.473147	0.584213
	C7376	C	0.521853	0.458924	0.832315
	C7377	C	0.584432	0.521167	0.832801
	C7378	C	0.514669	0.455504	0.668215
	C7379	C	0.577263	0.518058	0.668034
	C7380	C	0.514670	0.455559	0.832593
	C7381	C	0.577265	0.517848	0.832786
	C7382	C	0.521852	0.458832	0.668228
	C7383	C	0.584434	0.521407	0.668185
	N7384	N	0.504895	0.601281	0.952586
	N7385	N	0.558312	0.467834	0.951624
	N7386	N	0.544536	0.497859	0.548568
	N7387	N	0.611635	0.477456	0.549587
	N7388	N	0.544553	0.497818	0.953016
	N7389	N	0.611588	0.477843	0.951654
	N7390	N	0.504893	0.601278	0.547363
	N7391	N	0.558332	0.467928	0.549919
	N7392	N	0.544506	0.468513	0.702011
	N7393	N	0.607078	0.530950	0.703082
	N7394	N	0.493889	0.434400	0.799122
	N7395	N	0.556400	0.497051	0.799055
	N7396	N	0.493820	0.434552	0.702778
	N7397	N	0.556362	0.497214	0.702335
	N7398	N	0.544521	0.468367	0.798880
	N7399	N	0.607025	0.531146	0.799850
	H7400	H	0.522314	0.787534	0.349228
	H7401	H	0.573105	0.647781	0.351308
	H7402	H	0.550188	0.715609	0.149598
	H7403	H	0.600949	0.575492	0.152985
	H7404	H	0.550199	0.715691	0.351587
	H7405	H	0.601164	0.576054	0.349485
	H7406	H	0.522310	0.787726	0.150556
	H7407	H	0.573159	0.648115	0.150389
	H7408	H	0.547711	0.663874	0.103404
	H7409	H	0.610141	0.726283	0.101965
	H7410	H	0.513027	0.636984	0.397205
	H7411	H	0.575688	0.699695	0.397652
	H7412	H	0.513052	0.637500	0.103108
	H7413	H	0.575543	0.700246	0.102681
	H7414	H	0.547810	0.663267	0.397429
	H7415	H	0.610399	0.725565	0.396235
	H7416	H	0.531469	0.764399	0.457478
	H7417	H	0.582486	0.625118	0.611300
	H7418	H	0.541053	0.739159	-0.080735
	H7419	H	0.591820	0.599253	0.109690
	H7420	H	0.541111	0.739176	0.456951
	H7421	H	0.592188	0.600101	0.610806
	H7422	H	0.531351	0.764240	-0.080796
	H7423	H	0.582142	0.624357	0.109802
	H7424	H	0.536775	0.653335	0.242969
	H7425	H	0.599059	0.717304	0.244768
	H7426	H	0.523979	0.647536	0.256682
	H7427	H	0.586790	0.708616	0.255448
	H7428	H	0.524435	0.644738	0.244468
	H7429	H	0.586702	0.708799	0.245431
	H7430	H	0.536329	0.656105	0.257081
	H7431	H	0.599126	0.717370	0.254559
	Co7432	Co	0.624169	0.744240	0.123166
	Co7433	Co	0.561628	0.681792	0.124995
	Co7434	Co	0.499165	0.619002	0.374938
	Co7435	Co	0.561635	0.681779	0.375783
	C7436	C	0.521407	0.790143	0.422724
	C7437	C	0.572252	0.650345	0.424516
	C7438	C	0.551062	0.713128	0.076386
	C7439	C	0.601870	0.573246	0.079043
	C7440	C	0.551090	0.713147	0.424380
	C7441	C	0.601995	0.573535	0.423674
	C7442	C	0.521405	0.790191	0.076793
	C7443	C	0.572233	0.650524	0.077333
	C7444	C	0.548858	0.664714	0.175136
	C7445	C	0.611368	0.727234	0.173399
	C7446	C	0.511876	0.636183	0.325690
	C7447	C	0.574437	0.698824	0.326124
	C7448	C	0.511875	0.636434	0.174759
	C7449	C	0.574370	0.699126	0.174564
	C7450	C	0.548902	0.664450	0.325985
	C7451	C	0.611477	0.726851	0.324519
	C7452	C	0.524892	0.781507	0.500003
	C7453	C	0.575589	0.641374	0.001312
	C7454	C	0.547736	0.722216	0.500478
	C7455	C	0.598430	0.582254	0.002143
	C7456	C	0.544698	0.660802	0.250560
	C7457	C	0.607249	0.723303	0.249232
	C7458	C	0.516039	0.640124	0.250464
	C7459	C	0.578557	0.702789	0.250154
	C7460	C	0.530703	0.766563	0.500297
	C7461	C	0.581323	0.626254	0.001669
	C7462	C	0.541986	0.737297	0.500522
	C7463	C	0.592592	0.597102	0.001919
	C7464	C	0.537460	0.655388	0.250255
	C7465	C	0.600021	0.717815	0.249523
	C7466	C	0.523290	0.645491	0.250370
	C7467	C	0.585828	0.708076	0.250176
	C7468	C	0.533561	0.758937	0.476226
	C7469	C	0.584429	0.619264	0.562997
	C7470	C	0.539012	0.744715	-0.045320
	C7471	C	0.589708	0.604628	0.062395
	C7472	C	0.539052	0.744747	0.476225
	C7473	C	0.589898	0.605055	0.562625
	C7474	C	0.533521	0.758922	-0.045465
	C7475	C	0.584217	0.618803	0.062348
	C7476	C	0.533979	0.652075	0.246602
	C7477	C	0.596381	0.715421	0.247016
	C7478	C	0.526792	0.648777	0.254061
	C7479	C	0.589466	0.710540	0.252881
	C7480	C	0.527031	0.647275	0.246709
	C7481	C	0.589425	0.710619	0.247356
	C7482	C	0.533733	0.653617	0.253845
	C7483	C	0.596423	0.715294	0.252086
	N7484	N	0.516327	0.803158	0.451714
	N7485	N	0.567344	0.663753	0.452973
	N7486	N	0.555959	0.699743	0.047407
	N7487	N	0.606950	0.560327	0.049495
	N7488	N	0.555982	0.699726	0.453314
	N7489	N	0.607064	0.560594	0.453361
	N7490	N	0.516350	0.803210	0.047453
	N7491	N	0.567323	0.663876	0.048161
	N7492	N	0.555028	0.670406	0.203838
	N7493	N	0.617561	0.732885	0.201717
	N7494	N	0.505666	0.630646	0.296630
	N7495	N	0.568241	0.693199	0.297522
	N7496	N	0.505676	0.630802	0.202982
	N7497	N	0.568186	0.693392	0.203381
	N7498	N	0.555067	0.670216	0.297451
	N7499	N	0.617632	0.732648	0.295367
	H7500	H	0.522322	0.787682	0.848842
	H7501	H	0.573086	0.647528	0.851958
	H7502	H	0.550150	0.715554	0.649764
	H7503	H	0.600871	0.575548	0.652205
	H7504	H	0.550160	0.715519	0.850379
	H7505	H	0.601107	0.576143	0.851187
	H7506	H	0.522431	0.788103	0.650704
	H7507	H	0.573223	0.648195	0.651240
	H7508	H	0.547734	0.663758	0.602221
	H7509	H	0.610177	0.726651	0.601030
	H7510	H	0.513099	0.637754	0.897489
	H7511	H	0.575836	0.699377	0.897939
	H7512	H	0.513105	0.637795	0.601469
	H7513	H	0.575358	0.700948	0.603045
	H7514	H	0.547731	0.663606	0.896600
	H7515	H	0.610487	0.724990	0.894670
	H7516	H	0.531630	0.764621	1.080356
	H7517	H	0.582055	0.624007	0.893503
	H7518	H	0.541223	0.739437	0.543761
	H7519	H	0.591439	0.598093	0.391009
	H7520	H	0.541316	0.739543	1.080679
	H7521	H	0.591782	0.598993	0.893799
	H7522	H	0.531571	0.764399	0.542674
	H7523	H	0.581744	0.623031	0.391059
	H7524	H	0.536765	0.653570	0.716397
	H7525	H	0.599135	0.717509	0.767812
	H7526	H	0.524035	0.647876	0.781806
	H7527	H	0.586850	0.708304	0.730458
	H7528	H	0.524401	0.645151	0.717251
	H7529	H	0.586747	0.709087	0.768156
	H7530	H	0.536370	0.656411	0.780664
	H7531	H	0.599195	0.716835	0.729560
	Co7532	Co	0.624167	0.744488	0.622881
	Co7533	Co	0.561720	0.681843	0.625046
	Co7534	Co	0.499220	0.619151	0.875011
	Co7535	Co	0.561669	0.681681	0.875846
	C7536	C	0.521398	0.790140	0.922623
	C7537	C	0.572190	0.650261	0.925002
	C7538	C	0.551075	0.713093	0.576834
	C7539	C	0.601836	0.573286	0.578242
	C7540	C	0.551052	0.713080	0.923398
	C7541	C	0.601964	0.573597	0.925032
	C7542	C	0.521466	0.790447	0.576983
	C7543	C	0.572307	0.650555	0.577713
	C7544	C	0.548932	0.664683	0.673813
	C7545	C	0.611433	0.727238	0.672636
	C7546	C	0.511898	0.636646	0.825322
	C7547	C	0.574538	0.698651	0.825879
	C7548	C	0.511882	0.636681	0.673609
	C7549	C	0.574302	0.699465	0.675143
	C7550	C	0.548924	0.664602	0.824973
	C7551	C	0.611579	0.726487	0.823501
	C7552	C	0.524847	0.781332	0.999779
	C7553	C	0.575619	0.641379	0.501385
	C7554	C	0.547682	0.722176	0.999895
	C7555	C	0.598422	0.582154	0.500721
	C7556	C	0.544756	0.660851	0.749021
	C7557	C	0.607314	0.723164	0.748258
	C7558	C	0.516048	0.640538	0.749502
	C7559	C	0.578610	0.702809	0.750224
	C7560	C	0.530665	0.766483	0.999930
	C7561	C	0.581334	0.626210	0.501523
	C7562	C	0.541966	0.737306	0.999873
	C7563	C	0.592599	0.597031	0.500709
	C7564	C	0.537498	0.655572	0.748812
	C7565	C	0.600072	0.717784	0.748599
	C7566	C	0.523282	0.645920	0.749720
	C7567	C	0.585872	0.708089	0.749418
	C7568	C	0.533659	0.759094	1.045313
	C7569	C	0.584194	0.618639	0.941027
	C7570	C	0.539123	0.744809	0.524420
	C7571	C	0.589496	0.603940	0.439411
	C7572	C	0.539157	0.744920	1.045091
	C7573	C	0.589679	0.604460	0.941100
	C7574	C	0.533651	0.759026	0.524314
	C7575	C	0.584013	0.618101	0.439431
	C7576	C	0.533976	0.652362	0.730768
	C7577	C	0.596427	0.715508	0.759425
	C7578	C	0.526795	0.649158	0.767433
	C7579	C	0.589528	0.710299	0.738553
	C7580	C	0.527013	0.647589	0.731379
	C7581	C	0.589471	0.710721	0.759932
	C7582	C	0.533753	0.653918	0.766936
	C7583	C	0.596489	0.715114	0.738254
	N7584	N	0.516351	0.803172	0.951758
	N7585	N	0.567310	0.663745	0.953432
	N7586	N	0.555979	0.699689	0.548016
	N7587	N	0.606981	0.560460	0.549126
	N7588	N	0.555973	0.699735	0.952460
	N7589	N	0.607009	0.560553	0.954137
	N7590	N	0.516357	0.803310	0.547846
	N7591	N	0.567397	0.663945	0.548184
	N7592	N	0.555125	0.670331	0.702954
	N7593	N	0.617636	0.732766	0.701049
	N7594	N	0.505731	0.630861	0.796771
	N7595	N	0.568310	0.693133	0.797887
	N7596	N	0.505732	0.630890	0.702448
	N7597	N	0.568155	0.693634	0.703996
	N7598	N	0.555125	0.670224	0.796863
	N7599	N	0.617737	0.732260	0.794824
	H7600	H	0.519893	0.883321	0.346780
	H7601	H	0.584758	0.850128	0.347794
	H7602	H	0.556752	0.896884	0.151946
	H7603	H	0.612784	0.778184	0.147197
	H7604	H	0.556705	0.896964	0.346974
	H7605	H	0.612603	0.778058	0.349995
	H7606	H	0.519892	0.883135	0.151238
	H7607	H	0.584730	0.849897	0.149072
	H7608	H	0.560158	0.856621	0.097056
	H7609	H	0.622774	0.918954	0.097974
	H7610	H	0.524042	0.837020	0.400432
	H7611	H	0.586551	0.899528	0.400968
	H7612	H	0.524031	0.836953	0.098045
	H7613	H	0.586640	0.899256	0.098423
	H7614	H	0.560118	0.856662	0.400706
	H7615	H	0.622704	0.919381	0.401542
	H7616	H	0.532294	0.884866	0.348733
	H7617	H	0.593924	0.827054	0.476200
	H7618	H	0.544647	0.892321	0.149307
	H7619	H	0.603249	0.800678	-0.070939
	H7620	H	0.544727	0.891449	0.348720
	H7621	H	0.603602	0.801991	0.476511
	H7622	H	0.532171	0.885989	0.149626
	H7623	H	0.593591	0.825812	-0.070557
	H7624	H	0.548669	0.847618	0.100429
	H7625	H	0.611207	0.910055	0.397752
	H7626	H	0.536196	0.840689	0.396847
	H7627	H	0.598763	0.903217	0.101763
	H7628	H	0.536018	0.842016	0.100761
	H7629	H	0.598603	0.904394	0.397845
	H7630	H	0.548794	0.846395	0.396704
	H7631	H	0.611348	0.909096	0.101543
	Co7632	Co	0.634876	0.945130	0.124842
	Co7633	Co	0.572415	0.882332	0.123841
	Co7634	Co	0.509891	0.819864	0.374278
	Co7635	Co	0.572383	0.882451	0.374506
	C7636	C	0.518638	0.884154	0.421671
	C7637	C	0.583868	0.852602	0.421583
	C7638	C	0.558034	0.896307	0.076731
	C7639	C	0.613597	0.775554	0.074087
	C7640	C	0.558045	0.896341	0.421826
	C7641	C	0.613575	0.775678	0.422678
	C7642	C	0.518638	0.884027	0.076755
	C7643	C	0.583865	0.852480	0.075477
	C7644	C	0.561213	0.858332	0.171557
	C7645	C	0.623745	0.920777	0.172538
	C7646	C	0.522826	0.836280	0.326431
	C7647	C	0.585340	0.898672	0.326714
	C7648	C	0.522816	0.836279	0.171944
	C7649	C	0.585400	0.898557	0.172365
	C7650	C	0.561164	0.858423	0.326595
	C7651	C	0.623670	0.921101	0.327554
	C7652	C	0.523341	0.882870	0.499138
	C7653	C	0.587360	0.843818	-0.001801
	C7654	C	0.553390	0.896247	0.499417
	C7655	C	0.610166	0.784476	-0.002270
	C7656	C	0.557131	0.853387	0.248937
	C7657	C	0.619684	0.915857	0.249946
	C7658	C	0.527321	0.838445	0.249021
	C7659	C	0.589859	0.900804	0.249744
	C7660	C	0.531072	0.884877	0.499034
	C7661	C	0.593152	0.828868	-0.002019
	C7662	C	0.545786	0.892830	0.499231
	C7663	C	0.604443	0.799593	-0.002360
	C7664	C	0.549816	0.847800	0.248800
	C7665	C	0.612371	0.910350	0.249718
	C7666	C	0.534973	0.841189	0.248925
	C7667	C	0.597521	0.903674	0.249658
	C7668	C	0.534914	0.886558	0.415634
	C7669	C	0.596069	0.821568	0.486084
	C7670	C	0.541995	0.890734	0.082701
	C7671	C	0.601338	0.806576	-0.040539
	C7672	C	0.542042	0.890417	0.415575
	C7673	C	0.601583	0.807441	0.486320
	C7674	C	0.534874	0.886966	0.082942
	C7675	C	0.595849	0.820783	-0.040523
	C7676	C	0.545995	0.846139	0.166229
	C7677	C	0.608525	0.908657	0.332212
	C7678	C	0.538858	0.842198	0.331302
	C7679	C	0.601425	0.904796	0.167186
	C7680	C	0.538792	0.842902	0.166238
	C7681	C	0.601342	0.905363	0.332223
	C7682	C	0.546064	0.845420	0.331281
	C7683	C	0.608620	0.908100	0.167232
	N7684	N	0.511697	0.886698	0.450283
	N7685	N	0.578793	0.865557	0.451191
	N7686	N	0.565017	0.895560	0.048187
	N7687	N	0.618489	0.762134	0.045433
	N7688	N	0.565001	0.895606	0.450306
	N7689	N	0.618487	0.762324	0.451385
	N7690	N	0.511682	0.886483	0.048040
	N7691	N	0.578819	0.865519	0.046374
	N7692	N	0.566989	0.866254	0.201087
	N7693	N	0.629494	0.928882	0.201823
	N7694	N	0.516214	0.832774	0.297644
	N7695	N	0.578735	0.895232	0.297653
	N7696	N	0.516224	0.832767	0.200899
	N7697	N	0.578785	0.895111	0.200701
	N7698	N	0.566959	0.866308	0.297526
	N7699	N	0.629465	0.928998	0.298482
	H7700	H	0.519875	0.882525	0.847162
	H7701	H	0.584906	0.850642	0.847407
	H7702	H	0.556714	0.896819	0.651467
	H7703	H	0.612829	0.778563	0.647009
	H7704	H	0.556712	0.896691	0.846512
	H7705	H	0.612417	0.777241	0.848151
	H7706	H	0.519867	0.882998	0.651679
	H7707	H	0.584865	0.850327	0.649645
	H7708	H	0.560308	0.856552	0.597206
	H7709	H	0.622810	0.918712	0.598550
	H7710	H	0.524153	0.836329	0.900531
	H7711	H	0.586521	0.899500	0.900536
	H7712	H	0.524060	0.837152	0.598599
	H7713	H	0.586708	0.898721	0.598064
	H7714	H	0.560233	0.856403	0.900749
	H7715	H	0.622710	0.919188	0.902103
	H7716	H	0.532262	0.884447	0.849544
	H7717	H	0.594395	0.827823	1.066092
	H7718	H	0.544663	0.892008	0.649762
	H7719	H	0.603869	0.802117	0.521614
	H7720	H	0.544761	0.891119	0.849231
	H7721	H	0.604064	0.802828	1.065701
	H7722	H	0.532208	0.885587	0.649354
	H7723	H	0.594118	0.827015	0.521949
	H7724	H	0.548675	0.847648	0.600033
	H7725	H	0.611365	0.909023	0.602165
	H7726	H	0.536377	0.840089	0.897094
	H7727	H	0.598684	0.903683	0.897667
	H7728	H	0.536070	0.841860	0.600938
	H7729	H	0.598796	0.903281	0.601664
	H7730	H	0.548948	0.845842	0.896140
	H7731	H	0.611287	0.909362	0.898607
	Co7732	Co	0.634927	0.944850	0.624854
	Co7733	Co	0.572403	0.882423	0.623905
	Co7734	Co	0.509926	0.819858	0.874409
	Co7735	Co	0.572403	0.882461	0.874092
	C7736	C	0.518623	0.883639	0.921858
	C7737	C	0.583951	0.852841	0.921029
	C7738	C	0.558053	0.896319	0.577316
	C7739	C	0.613681	0.775890	0.574874
	C7740	C	0.558030	0.896238	0.921030
	C7741	C	0.613431	0.775095	0.921456
	C7742	C	0.518627	0.883972	0.576843
	C7743	C	0.583930	0.852711	0.575714
	C7744	C	0.561276	0.858167	0.671408
	C7745	C	0.623783	0.920546	0.672680
	C7746	C	0.522934	0.835961	0.826734
	C7747	C	0.585375	0.898697	0.826450
	C7748	C	0.522861	0.836283	0.672614
	C7749	C	0.585488	0.898226	0.672044
	C7750	C	0.561237	0.858202	0.826367
	C7751	C	0.623746	0.920770	0.827422
	C7752	C	0.523306	0.882624	0.999312
	C7753	C	0.587376	0.843894	0.498577
	C7754	C	0.553403	0.896131	0.998809
	C7755	C	0.610276	0.784852	0.498821
	C7756	C	0.557228	0.853113	0.748749
	C7757	C	0.619752	0.915563	0.750080
	C7758	C	0.527389	0.838243	0.749435
	C7759	C	0.589927	0.900589	0.749609
	C7760	C	0.531075	0.884678	0.999479
	C7761	C	0.593197	0.829044	0.498700
	C7762	C	0.545784	0.892667	0.999018
	C7763	C	0.604530	0.799930	0.498959
	C7764	C	0.549896	0.847633	0.748300
	C7765	C	0.612429	0.910001	0.750273
	C7766	C	0.535056	0.840994	0.748901
	C7767	C	0.597593	0.903446	0.749996
	C7768	C	0.534919	0.886214	0.915906
	C7769	C	0.596307	0.821983	1.035885
	C7770	C	0.542008	0.890619	0.582838
	C7771	C	0.601689	0.807459	0.511821
	C7772	C	0.542036	0.890092	0.915667
	C7773	C	0.601786	0.807757	1.035763
	C7774	C	0.534876	0.886846	0.582728
	C7775	C	0.596192	0.821611	0.511839
	C7776	C	0.546035	0.846060	0.665915
	C7777	C	0.608662	0.907877	0.667710
	C7778	C	0.538996	0.841814	0.831248
	C7779	C	0.601422	0.904910	0.832585
	C7780	C	0.538835	0.842842	0.666367
	C7781	C	0.601472	0.904686	0.667464
	C7782	C	0.546186	0.845059	0.830755
	C7783	C	0.608613	0.908129	0.832922
	N7784	N	0.511671	0.886332	0.950319
	N7785	N	0.578873	0.865757	0.950597
	N7786	N	0.565020	0.895588	0.548682
	N7787	N	0.618559	0.762454	0.546035
	N7788	N	0.565014	0.895527	0.950041
	N7789	N	0.618379	0.761845	0.950496
	N7790	N	0.511689	0.886684	0.548032
	N7791	N	0.578828	0.865621	0.546801
	N7792	N	0.567028	0.866200	0.700778
	N7793	N	0.629528	0.928663	0.701675
	N7794	N	0.516304	0.832637	0.798129
	N7795	N	0.578757	0.895292	0.797356
	N7796	N	0.516235	0.832889	0.701450
	N7797	N	0.578835	0.895029	0.700429
	N7798	N	0.566987	0.866289	0.797279
	N7799	N	0.629514	0.928761	0.798448
	H7800	H	0.514585	0.966602	0.346153
	H7801	H	0.582450	0.945449	0.346241
	H7802	H	0.551323	0.980402	0.151654
	H7803	H	0.619184	0.959130	0.151946
	H7804	H	0.551386	0.980504	0.346050
	H7805	H	0.619248	0.959565	0.347857
	H7806	H	0.514580	0.966658	0.152334
	H7807	H	0.582419	0.945222	0.151491
	H7808	H	0.554013	0.940168	0.097510
	H7809	H	0.616555	1.002299	0.096703
	H7810	H	0.517314	0.923163	0.401972
	H7811	H	0.579782	0.985800	0.401385
	H7812	H	0.517278	0.923273	0.097042
	H7813	H	0.579887	0.985449	0.096008
	H7814	H	0.553930	0.940399	0.402166
	H7815	H	0.616426	1.002659	0.401380
	H7816	H	0.526640	0.971270	0.348422
	H7817	H	0.594744	0.948068	0.348957
	H7818	H	0.539085	0.977751	-0.151003
	H7819	H	0.607191	0.954085	0.149946
	H7820	H	0.539122	0.977849	0.348613
	H7821	H	0.607221	0.954482	0.349364
	H7822	H	0.526614	0.971005	-0.151062
	H7823	H	0.594706	0.947456	0.150051
	H7824	H	0.541891	0.934689	0.099123
	H7825	H	0.604518	0.996178	0.098431
	H7826	H	0.529302	0.929009	0.399813
	H7827	H	0.591808	0.991757	0.399174
	H7828	H	0.529238	0.929900	0.098783
	H7829	H	0.591864	0.991695	0.098329
	H7830	H	0.542001	0.933659	0.399653
	H7831	H	0.604515	0.996438	0.399525
	Co7832	Co	0.629373	1.025435	0.123860
	Co7833	Co	0.566889	0.962862	0.123949
	Co7834	Co	0.504358	0.900551	0.374616
	Co7835	Co	0.566905	0.962931	0.374852
	C7836	C	0.513226	0.967075	0.420926
	C7837	C	0.581152	0.946352	0.421417
	C7838	C	0.552636	0.979498	0.076941
	C7839	C	0.620495	0.958756	0.077431
	C7840	C	0.552683	0.979550	0.421392
	C7841	C	0.620567	0.959027	0.422322
	C7842	C	0.513242	0.967110	0.077311
	C7843	C	0.581135	0.946260	0.076844
	C7844	C	0.555076	0.941422	0.171939
	C7845	C	0.617608	1.003778	0.171426
	C7846	C	0.516231	0.921872	0.327020
	C7847	C	0.578718	0.984440	0.326472
	C7848	C	0.516219	0.921859	0.171835
	C7849	C	0.578766	0.984251	0.171241
	C7850	C	0.555029	0.941618	0.327236
	C7851	C	0.617558	1.003985	0.326829
	C7852	C	0.517905	0.967191	0.498805
	C7853	C	0.585831	0.945153	-0.000685
	C7854	C	0.547964	0.980579	0.499012
	C7855	C	0.615857	0.958617	-0.000292
	C7856	C	0.550760	0.937883	0.249557
	C7857	C	0.613290	1.000154	0.249016
	C7858	C	0.520525	0.925412	0.249346
	C7859	C	0.583033	0.988003	0.249054
	C7860	C	0.525519	0.970541	0.498831
	C7861	C	0.593568	0.947116	-0.000663
	C7862	C	0.540246	0.978472	0.498912
	C7863	C	0.608248	0.955156	-0.000672
	C7864	C	0.543155	0.934270	0.249451
	C7865	C	0.605703	0.996569	0.248970
	C7866	C	0.528111	0.929042	0.249328
	C7867	C	0.590637	0.991569	0.248919
	C7868	C	0.529307	0.972597	0.415286
	C7869	C	0.597396	0.949436	0.416025
	C7870	C	0.536400	0.976522	-0.084374
	C7871	C	0.604486	0.952803	0.083132
	C7872	C	0.536450	0.976438	0.415219
	C7873	C	0.604537	0.953193	0.416202
	C7874	C	0.529282	0.972548	-0.084423
	C7875	C	0.597369	0.948937	0.083187
	C7876	C	0.539227	0.933313	0.165863
	C7877	C	0.601828	0.995206	0.165409
	C7878	C	0.532018	0.930141	0.333003
	C7879	C	0.594540	0.992839	0.332444
	C7880	C	0.531968	0.930695	0.165702
	C7881	C	0.594545	0.992783	0.165314
	C7882	C	0.539282	0.932667	0.332956
	C7883	C	0.601818	0.995363	0.332539
	N7884	N	0.506267	0.967789	0.449740
	N7885	N	0.574210	0.949001	0.450371
	N7886	N	0.559580	0.976857	0.048260
	N7887	N	0.627458	0.958049	0.049027
	N7888	N	0.559622	0.976919	0.450254
	N7889	N	0.627523	0.958283	0.450984
	N7890	N	0.506276	0.967734	0.048402
	N7891	N	0.574171	0.948992	0.048118
	N7892	N	0.561290	0.947525	0.200962
	N7893	N	0.623792	1.009949	0.200771
	N7894	N	0.509991	0.915961	0.298167
	N7895	N	0.572523	0.978284	0.297510
	N7896	N	0.510001	0.915869	0.200802
	N7897	N	0.572533	0.978243	0.200158
	N7898	N	0.561282	0.947580	0.298213
	N7899	N	0.623784	1.009987	0.298062
	H7900	H	0.514577	0.966603	0.846855
	H7901	H	0.582380	0.945732	0.847510
	H7902	H	0.551425	0.980224	0.651149
	H7903	H	0.619238	0.959258	0.652264
	H7904	H	0.551345	0.980325	0.847826
	H7905	H	0.619250	0.959326	0.847263
	H7906	H	0.514556	0.966727	0.651122
	H7907	H	0.582430	0.945569	0.651463
	H7908	H	0.553956	0.940260	0.597278
	H7909	H	0.616500	1.002487	0.597253
	H7910	H	0.517359	0.922893	0.901848
	H7911	H	0.579791	0.985712	0.901154
	H7912	H	0.517348	0.923394	0.597425
	H7913	H	0.579853	0.985613	0.597297
	H7914	H	0.554010	0.940084	0.901771
	H7915	H	0.616421	1.002878	0.901939
	H7916	H	0.526523	0.972180	1.149647
	H7917	H	0.594742	0.947662	0.848095
	H7918	H	0.539077	0.978085	0.649242
	H7919	H	0.607202	0.954299	0.650258
	H7920	H	0.538975	0.978499	1.149680
	H7921	H	0.607205	0.954207	0.848611
	H7922	H	0.526616	0.971834	0.649243
	H7923	H	0.594700	0.947675	0.649510
	H7924	H	0.541953	0.934422	0.599310
	H7925	H	0.604453	0.996699	0.598795
	H7926	H	0.529327	0.929121	0.899967
	H7927	H	0.591747	0.991574	0.899500
	H7928	H	0.529294	0.929355	0.599355
	H7929	H	0.591736	0.992254	0.598842
	H7930	H	0.542058	0.933320	0.899879
	H7931	H	0.604441	0.996308	0.900422
	Co7932	Co	0.629371	1.025431	0.624249
	Co7933	Co	0.566893	0.962948	0.623414
	Co7934	Co	0.504394	0.900297	0.874106
	Co7935	Co	0.566864	0.963008	0.874862
	C7936	C	0.513232	0.967047	0.921487
	C7937	C	0.581133	0.946544	0.921588
	C7938	C	0.552679	0.979351	0.576764
	C7939	C	0.620580	0.958850	0.577741
	C7940	C	0.552643	0.979528	0.921592
	C7941	C	0.620524	0.958816	0.922202
	C7942	C	0.513227	0.967037	0.576642
	C7943	C	0.581140	0.946430	0.576969
	C7944	C	0.555067	0.941561	0.672084
	C7945	C	0.617575	1.003895	0.671938
	C7946	C	0.516219	0.921766	0.827459
	C7947	C	0.578696	0.984373	0.826837
	C7948	C	0.516248	0.921835	0.671883
	C7949	C	0.578720	0.984312	0.671373
	C7950	C	0.555047	0.941556	0.827291
	C7951	C	0.617536	1.004123	0.827223
	C7952	C	0.517898	0.967267	0.999201
	C7953	C	0.585848	0.945218	0.499192
	C7954	C	0.547919	0.980705	0.999181
	C7955	C	0.615916	0.958769	0.500064
	C7956	C	0.550766	0.937846	0.749549
	C7957	C	0.613242	1.000364	0.749720
	C7958	C	0.520546	0.925381	0.749813
	C7959	C	0.583013	0.987913	0.749263
	C7960	C	0.525492	0.970658	0.999175
	C7961	C	0.593583	0.947355	0.499414
	C7962	C	0.540181	0.978719	0.999065
	C7963	C	0.608307	0.955357	0.499950
	C7964	C	0.543180	0.934133	0.749446
	C7965	C	0.605656	0.996725	0.749684
	C7966	C	0.528151	0.928928	0.749827
	C7967	C	0.590606	0.991542	0.749340
	C7968	C	0.529218	0.973209	1.082915
	C7969	C	0.597376	0.949078	0.915436
	C7970	C	0.536419	0.976668	0.582476
	C7971	C	0.604528	0.953030	0.583303
	C7972	C	0.536351	0.977024	1.082715
	C7973	C	0.604499	0.952887	0.915313
	C7974	C	0.529261	0.972975	0.582403
	C7975	C	0.597394	0.949182	0.583091
	C7976	C	0.539264	0.933071	0.666000
	C7977	C	0.601764	0.995577	0.665843
	C7978	C	0.532036	0.930144	0.833246
	C7979	C	0.594498	0.992685	0.833033
	C7980	C	0.532005	0.930350	0.666128
	C7981	C	0.594481	0.993066	0.665511
	C7982	C	0.539326	0.932545	0.833233
	C7983	C	0.601763	0.995371	0.833196
	N7984	N	0.506277	0.967732	0.950327
	N7985	N	0.574175	0.949128	0.950479
	N7986	N	0.559603	0.976822	0.548024
	N7987	N	0.627539	0.958139	0.549236
	N7988	N	0.559567	0.976879	0.950573
	N7989	N	0.627481	0.958065	0.950763
	N7990	N	0.506277	0.967773	0.547948
	N7991	N	0.574205	0.949052	0.547915
	N7992	N	0.561263	0.947660	0.700960
	N7993	N	0.623788	1.009979	0.701023
	N7994	N	0.509977	0.915803	0.797820
	N7995	N	0.572474	0.978376	0.797616
	N7996	N	0.509996	0.915908	0.700635
	N7997	N	0.572468	0.978332	0.700602
	N7998	N	0.561265	0.947614	0.798268
	N7999	N	0.623752	1.010168	0.798384
	H8000	H	0.639613	0.091847	0.346654
	H8001	H	0.707439	0.070395	0.347004
	H8002	H	0.676370	0.105443	0.151035
	H8003	H	0.744181	0.084342	0.152410
	H8004	H	0.676439	0.105061	0.346602
	H8005	H	0.744223	0.084250	0.347387
	H8006	H	0.639482	0.091688	0.151438
	H8007	H	0.707442	0.070866	0.152107
	H8008	H	0.678897	0.065399	0.096594
	H8009	H	0.741530	0.127582	0.097313
	H8010	H	0.642340	0.048136	0.402164
	H8011	H	0.704842	0.110426	0.402182
	H8012	H	0.642307	0.048388	0.097328
	H8013	H	0.704808	0.110854	0.097584
	H8014	H	0.679077	0.064788	0.401768
	H8015	H	0.741524	0.127664	0.401721
	H8016	H	0.651664	0.096453	0.348596
	H8017	H	0.719681	0.072582	0.349326
	H8018	H	0.664041	0.103226	0.149195
	H8019	H	0.732156	0.079266	0.149572
	H8020	H	0.664133	0.102892	0.348310
	H8021	H	0.732244	0.079113	0.349603
	H8022	H	0.651527	0.096706	0.149422
	H8023	H	0.719658	0.072979	0.149360
	H8024	H	0.666968	0.059080	0.098782
	H8025	H	0.729479	0.121900	0.099304
	H8026	H	0.654281	0.054314	0.400038
	H8027	H	0.716847	0.116461	0.400368
	H8028	H	0.654243	0.054394	0.098995
	H8029	H	0.716772	0.117239	0.099155
	H8030	H	0.667027	0.058797	0.400328
	H8031	H	0.729516	0.121308	0.400187
	Co8032	Co	0.754411	0.150386	0.123918
	Co8033	Co	0.691891	0.088193	0.123400
	Co8034	Co	0.629403	0.025391	0.375348
	Co8035	Co	0.691957	0.087681	0.374999
	C8036	C	0.638287	0.092250	0.421427
	C8037	C	0.706132	0.071131	0.421704
	C8038	C	0.677650	0.104651	0.076410
	C8039	C	0.745503	0.083858	0.077290
	C8040	C	0.677723	0.104192	0.421141
	C8041	C	0.745518	0.083773	0.422061
	C8042	C	0.638196	0.092173	0.076501
	C8043	C	0.706113	0.071543	0.077202
	C8044	C	0.680018	0.066697	0.171699
	C8045	C	0.742614	0.128982	0.172093
	C8046	C	0.641213	0.046803	0.327190
	C8047	C	0.703751	0.109300	0.327511
	C8048	C	0.641201	0.046818	0.171796
	C8049	C	0.703723	0.109452	0.172472
	C8050	C	0.680095	0.066363	0.326961
	C8051	C	0.742599	0.129024	0.327264
	C8052	C	0.642938	0.092402	0.499365
	C8053	C	0.710797	0.070331	-0.000584
	C8054	C	0.673023	0.105594	0.498791
	C8055	C	0.740862	0.083644	-0.000807
	C8056	C	0.675763	0.062815	0.249422
	C8057	C	0.738300	0.125333	0.249603
	C8058	C	0.645503	0.050460	0.249391
	C8059	C	0.708038	0.113030	0.249909
	C8060	C	0.650553	0.095778	0.499270
	C8061	C	0.718549	0.072333	-0.000887
	C8062	C	0.665265	0.103680	0.498740
	C8063	C	0.733261	0.080195	-0.000770
	C8064	C	0.668167	0.059171	0.249515
	C8065	C	0.730699	0.121777	0.249672
	C8066	C	0.653121	0.054070	0.249473
	C8067	C	0.715636	0.116658	0.249698
	C8068	C	0.654324	0.097892	0.415423
	C8069	C	0.722372	0.074061	0.415811
	C8070	C	0.661383	0.101651	0.082592
	C8071	C	0.729495	0.078035	0.082792
	C8072	C	0.661468	0.101660	0.415274
	C8073	C	0.729510	0.077852	0.415885
	C8074	C	0.654238	0.097908	0.082657
	C8075	C	0.722360	0.074235	0.082788
	C8076	C	0.664268	0.057950	0.165763
	C8077	C	0.726791	0.120646	0.166139
	C8078	C	0.657018	0.055340	0.333175
	C8079	C	0.719545	0.117777	0.333443
	C8080	C	0.656988	0.055399	0.165717
	C8081	C	0.719506	0.118139	0.166071
	C8082	C	0.664295	0.057809	0.333370
	C8083	C	0.726825	0.120296	0.333310
	N8084	N	0.631323	0.092930	0.450059
	N8085	N	0.699199	0.073688	0.450561
	N8086	N	0.684602	0.102081	0.047345
	N8087	N	0.752479	0.083257	0.048964
	N8088	N	0.684656	0.101655	0.450215
	N8089	N	0.752484	0.083127	0.450528
	N8090	N	0.631234	0.092846	0.047776
	N8091	N	0.699172	0.074111	0.048456
	N8092	N	0.686261	0.072682	0.200392
	N8093	N	0.748813	0.135052	0.200971
	N8094	N	0.634983	0.040806	0.298095
	N8095	N	0.697537	0.103232	0.298400
	N8096	N	0.634961	0.040823	0.200984
	N8097	N	0.697508	0.103433	0.201206
	N8098	N	0.686306	0.072480	0.297568
	N8099	N	0.748836	0.135035	0.298269
	H8100	H	0.639493	0.091528	0.846677
	H8101	H	0.707386	0.070475	0.847697
	H8102	H	0.676420	0.105547	0.650957
	H8103	H	0.744272	0.084374	0.652148
	H8104	H	0.676316	0.105207	0.846378
	H8105	H	0.744240	0.084394	0.846974
	H8106	H	0.639607	0.091707	0.651323
	H8107	H	0.707386	0.070388	0.651648
	H8108	H	0.678976	0.065280	0.597251
	H8109	H	0.741477	0.127825	0.597329
	H8110	H	0.642384	0.048215	0.901527
	H8111	H	0.704806	0.110639	0.901787
	H8112	H	0.642262	0.048379	0.596572
	H8113	H	0.704798	0.110532	0.597144
	H8114	H	0.679024	0.065037	0.901769
	H8115	H	0.741516	0.127552	0.901513
	H8116	H	0.651602	0.096124	0.848792
	H8117	H	0.719676	0.072582	0.848981
	H8118	H	0.664134	0.103582	0.648818
	H8119	H	0.732145	0.079369	0.650231
	H8120	H	0.664088	0.102580	0.848771
	H8121	H	0.732221	0.078757	0.849250
	H8122	H	0.651587	0.097234	0.649639
	H8123	H	0.719689	0.072625	0.649915
	H8124	H	0.666952	0.059383	0.598591
	H8125	H	0.729517	0.121677	0.598948
	H8126	H	0.654320	0.054151	0.899797
	H8127	H	0.716855	0.116424	0.899467
	H8128	H	0.654225	0.054806	0.598468
	H8129	H	0.716774	0.117129	0.599038
	H8130	H	0.667030	0.058602	0.899611
	H8131	H	0.729550	0.121191	0.899798
	Co8132	Co	0.754405	0.150605	0.623749
	Co8133	Co	0.691900	0.087782	0.623591
	Co8134	Co	0.629375	0.025585	0.875230
	Co8135	Co	0.691879	0.088006	0.874964
	C8136	C	0.638199	0.092135	0.921162
	C8137	C	0.706087	0.071335	0.921976
	C8138	C	0.677718	0.104587	0.576586
	C8139	C	0.745519	0.083898	0.577606
	C8140	C	0.677621	0.104518	0.921014
	C8141	C	0.745544	0.083911	0.921701
	C8142	C	0.638272	0.092238	0.576974
	C8143	C	0.706127	0.071185	0.577335
	C8144	C	0.680065	0.066524	0.671526
	C8145	C	0.742569	0.129166	0.671879
	C8146	C	0.641238	0.046963	0.826974
	C8147	C	0.703713	0.109390	0.826795
	C8148	C	0.641191	0.046991	0.671385
	C8149	C	0.703736	0.109206	0.671609
	C8150	C	0.680076	0.066463	0.826973
	C8151	C	0.742588	0.129077	0.826912
	C8152	C	0.642849	0.092289	0.998831
	C8153	C	0.710808	0.070080	0.499381
	C8154	C	0.672946	0.105615	0.998841
	C8155	C	0.740877	0.083650	0.499636
	C8156	C	0.675771	0.062830	0.749086
	C8157	C	0.738279	0.125436	0.749438
	C8158	C	0.645508	0.050668	0.748989
	C8159	C	0.708027	0.112947	0.749132
	C8160	C	0.650491	0.095525	0.998930
	C8161	C	0.718557	0.072190	0.499373
	C8162	C	0.665208	0.103435	0.999089
	C8163	C	0.733252	0.080249	0.499616
	C8164	C	0.668166	0.059248	0.748977
	C8165	C	0.730679	0.121804	0.749380
	C8166	C	0.653108	0.054285	0.748981
	C8167	C	0.715633	0.116596	0.749159
	C8168	C	0.654281	0.097547	0.915534
	C8169	C	0.722379	0.073964	0.915553
	C8170	C	0.661449	0.101998	0.582415
	C8171	C	0.729467	0.077982	0.583349
	C8172	C	0.661410	0.101325	0.915673
	C8173	C	0.729520	0.077708	0.915938
	C8174	C	0.654304	0.098238	0.582832
	C8175	C	0.722343	0.074157	0.583225
	C8176	C	0.664254	0.058193	0.665480
	C8177	C	0.726797	0.120591	0.665770
	C8178	C	0.657011	0.055318	0.832789
	C8179	C	0.719558	0.117639	0.832867
	C8180	C	0.656969	0.055735	0.665390
	C8181	C	0.719515	0.118086	0.665585
	C8182	C	0.664303	0.057744	0.832687
	C8183	C	0.726830	0.120258	0.832979
	N8184	N	0.631241	0.092817	0.949589
	N8185	N	0.699163	0.074007	0.950862
	N8186	N	0.684647	0.101784	0.547693
	N8187	N	0.752486	0.083203	0.548808
	N8188	N	0.684577	0.101976	0.949743
	N8189	N	0.752501	0.083362	0.950678
	N8190	N	0.631315	0.092955	0.548153
	N8191	N	0.699177	0.073760	0.548269
	N8192	N	0.686299	0.072520	0.700742
	N8193	N	0.748791	0.135196	0.700829
	N8194	N	0.635016	0.040925	0.798191
	N8195	N	0.697482	0.103358	0.797936
	N8196	N	0.635010	0.040909	0.700659
	N8197	N	0.697506	0.103193	0.700616
	N8198	N	0.686325	0.072471	0.798063
	N8199	N	0.748806	0.135153	0.797993
	H8200	H	0.643267	0.265057	0.349175
	H8201	H	0.702003	0.154073	0.347120
	H8202	H	0.673634	0.199633	0.149589
	H8203	H	0.738911	0.167767	0.151567
	H8204	H	0.673515	0.199589	0.348959
	H8205	H	0.738913	0.167636	0.346888
	H8206	H	0.643473	0.265735	0.150794
	H8207	H	0.702093	0.154085	0.151684
	H8208	H	0.672238	0.151827	0.097561
	H8209	H	0.734728	0.213748	0.097594
	H8210	H	0.636109	0.131664	0.401197
	H8211	H	0.698596	0.194143	0.402242
	H8212	H	0.635974	0.131943	0.097094
	H8213	H	0.698594	0.194357	0.098187
	H8214	H	0.672156	0.151288	0.399854
	H8215	H	0.734706	0.213997	0.400777
	H8216	H	0.653600	0.244979	0.461434
	H8217	H	0.714098	0.158998	0.349412
	H8218	H	0.664090	0.222322	-0.055564
	H8219	H	0.726575	0.165976	0.149377
	H8220	H	0.664099	0.222033	0.462261
	H8221	H	0.726623	0.165359	0.349593
	H8222	H	0.653602	0.245308	-0.054976
	H8223	H	0.714052	0.159500	0.149505
	H8224	H	0.660094	0.147033	0.099933
	H8225	H	0.722572	0.209718	0.102003
	H8226	H	0.647503	0.141432	0.397057
	H8227	H	0.710052	0.203724	0.397833
	H8228	H	0.647431	0.141384	0.100197
	H8229	H	0.709965	0.203947	0.102493
	H8230	H	0.660135	0.147137	0.396690
	H8231	H	0.722701	0.209357	0.397346
	Co8232	Co	0.748866	0.230802	0.123522
	Co8233	Co	0.686429	0.168531	0.124312
	Co8234	Co	0.623881	0.105911	0.374451
	Co8235	Co	0.686377	0.168471	0.374328
	C8236	C	0.642303	0.267429	0.422963
	C8237	C	0.700743	0.154689	0.422025
	C8238	C	0.674514	0.197135	0.076064
	C8239	C	0.740170	0.166910	0.076777
	C8240	C	0.674447	0.197130	0.422431
	C8241	C	0.740166	0.167004	0.421355
	C8242	C	0.642450	0.267771	0.077075
	C8243	C	0.700775	0.154630	0.077034
	C8244	C	0.673423	0.152353	0.171616
	C8245	C	0.735945	0.214355	0.171733
	C8246	C	0.635066	0.130009	0.326823
	C8247	C	0.697568	0.192517	0.327500
	C8248	C	0.634967	0.130231	0.171561
	C8249	C	0.697561	0.192696	0.172375
	C8250	C	0.673387	0.152114	0.326052
	C8251	C	0.735956	0.214495	0.326325
	C8252	C	0.646023	0.259326	0.499815
	C8253	C	0.705415	0.154731	-0.000428
	C8254	C	0.670745	0.205175	0.499787
	C8255	C	0.735493	0.168059	-0.000732
	C8256	C	0.668920	0.150064	0.248663
	C8257	C	0.731468	0.212203	0.249260
	C8258	C	0.639052	0.135113	0.248940
	C8259	C	0.701593	0.197641	0.250164
	C8260	C	0.652283	0.245637	0.499759
	C8261	C	0.713039	0.158158	-0.000512
	C8262	C	0.664499	0.218939	0.500058
	C8263	C	0.727748	0.166067	-0.000670
	C8264	C	0.661249	0.147285	0.248212
	C8265	C	0.723785	0.209579	0.249485
	C8266	C	0.646393	0.140641	0.248550
	C8267	C	0.708940	0.203084	0.250078
	C8268	C	0.655661	0.239480	0.478619
	C8269	C	0.716781	0.160370	0.416108
	C8270	C	0.661618	0.226640	-0.031841
	C8271	C	0.723922	0.164372	0.082769
	C8272	C	0.661600	0.226514	0.478681
	C8273	C	0.723930	0.164031	0.416040
	C8274	C	0.655695	0.239666	-0.031463
	C8275	C	0.716787	0.160618	0.082966
	C8276	C	0.657366	0.145887	0.165506
	C8277	C	0.719895	0.208325	0.167305
	C8278	C	0.650193	0.142668	0.331256
	C8279	C	0.712764	0.204976	0.332383
	C8280	C	0.650166	0.142627	0.165843
	C8281	C	0.712693	0.205158	0.167653
	C8282	C	0.657390	0.145876	0.331077
	C8283	C	0.719956	0.208206	0.332042
	N8284	N	0.636909	0.279557	0.452128
	N8285	N	0.693783	0.155398	0.450206
	N8286	N	0.679883	0.184959	0.046701
	N8287	N	0.747113	0.164231	0.048061
	N8288	N	0.679826	0.184921	0.451604
	N8289	N	0.747126	0.164438	0.450329
	N8290	N	0.637011	0.279773	0.047889
	N8291	N	0.693810	0.155343	0.048357
	N8292	N	0.680044	0.155700	0.200715
	N8293	N	0.742575	0.217787	0.200234
	N8294	N	0.629259	0.122160	0.297830
	N8295	N	0.691776	0.184648	0.297922
	N8296	N	0.629197	0.122218	0.201276
	N8297	N	0.691764	0.184761	0.201352
	N8298	N	0.680021	0.155619	0.297720
	N8299	N	0.742582	0.217849	0.297579
	H8300	H	0.643214	0.265017	0.849616
	H8301	H	0.702108	0.154148	0.847185
	H8302	H	0.673370	0.198911	0.650700
	H8303	H	0.738885	0.168089	0.651670
	H8304	H	0.673336	0.198774	0.848062
	H8305	H	0.738938	0.167784	0.846855
	H8306	H	0.643357	0.265497	0.650124
	H8307	H	0.701989	0.154245	0.652117
	H8308	H	0.672157	0.151549	0.597836
	H8309	H	0.734513	0.214533	0.598267
	H8310	H	0.636007	0.131693	0.901037
	H8311	H	0.698520	0.193973	0.901275
	H8312	H	0.635955	0.132099	0.596996
	H8313	H	0.698487	0.194509	0.596925
	H8314	H	0.672130	0.151033	0.900295
	H8315	H	0.734642	0.213717	0.899852
	H8316	H	0.652719	0.242175	1.053223
	H8317	H	0.714118	0.158749	0.849357
	H8318	H	0.663205	0.219558	0.537683
	H8319	H	0.726586	0.165953	0.649288
	H8320	H	0.663173	0.219243	1.052061
	H8321	H	0.726619	0.165185	0.849168
	H8322	H	0.652743	0.242481	0.537861
	H8323	H	0.714044	0.159456	0.649486
	H8324	H	0.660035	0.147427	0.601306
	H8325	H	0.722583	0.209391	0.897634
	H8326	H	0.647471	0.141219	0.897031
	H8327	H	0.709853	0.204473	0.601196
	H8328	H	0.647401	0.141786	0.601243
	H8329	H	0.709945	0.203614	0.897539
	H8330	H	0.660132	0.146773	0.897351
	H8331	H	0.722470	0.210272	0.601635
	Co8332	Co	0.748914	0.230895	0.624008
	Co8333	Co	0.686352	0.168287	0.624255
	Co8334	Co	0.623837	0.106034	0.874423
	Co8335	Co	0.686371	0.168144	0.874158
	C8336	C	0.642316	0.267430	0.923028
	C8337	C	0.700788	0.154617	0.921673
	C8338	C	0.674375	0.196776	0.576695
	C8339	C	0.740168	0.167076	0.577003
	C8340	C	0.674367	0.196672	0.921937
	C8341	C	0.740187	0.166897	0.921687
	C8342	C	0.642365	0.267678	0.576695
	C8343	C	0.700724	0.154696	0.577295
	C8344	C	0.673394	0.152072	0.671923
	C8345	C	0.735796	0.215028	0.672143
	C8346	C	0.635003	0.130159	0.826496
	C8347	C	0.697501	0.192424	0.826845
	C8348	C	0.634989	0.130200	0.671362
	C8349	C	0.697486	0.192612	0.671531
	C8350	C	0.673423	0.151825	0.826663
	C8351	C	0.735885	0.214597	0.826446
	C8352	C	0.646089	0.259395	0.999886
	C8353	C	0.705380	0.154882	0.499793
	C8354	C	0.670739	0.205138	0.998817
	C8355	C	0.735486	0.168159	0.499321
	C8356	C	0.668920	0.149767	0.749414
	C8357	C	0.731352	0.212695	0.749544
	C8358	C	0.639027	0.135248	0.749012
	C8359	C	0.701512	0.197609	0.749293
	C8360	C	0.652323	0.245631	0.999262
	C8361	C	0.712991	0.158265	0.499688
	C8362	C	0.664502	0.218927	0.998423
	C8363	C	0.727723	0.166099	0.499550
	C8364	C	0.661235	0.147106	0.749174
	C8365	C	0.723682	0.209757	0.749559
	C8366	C	0.646368	0.140675	0.749272
	C8367	C	0.708842	0.203155	0.749453
	C8368	C	0.655202	0.237863	1.029200
	C8369	C	0.716811	0.160238	0.915817
	C8370	C	0.661133	0.225159	0.521227
	C8371	C	0.723883	0.164449	0.582940
	C8372	C	0.661111	0.224874	1.028672
	C8373	C	0.723936	0.164009	0.915852
	C8374	C	0.655193	0.238111	0.520787
	C8375	C	0.716752	0.160673	0.583049
	C8376	C	0.657354	0.146001	0.666773
	C8377	C	0.719847	0.208216	0.832151
	C8378	C	0.650188	0.142523	0.831762
	C8379	C	0.712588	0.205472	0.666905
	C8380	C	0.650135	0.142844	0.666755
	C8381	C	0.712655	0.204932	0.831948
	C8382	C	0.657403	0.145678	0.831752
	C8383	C	0.719784	0.208715	0.667145
	N8384	N	0.636923	0.279530	0.952439
	N8385	N	0.693822	0.155329	0.950325
	N8386	N	0.679777	0.184705	0.547205
	N8387	N	0.747121	0.164479	0.548015
	N8388	N	0.679794	0.184647	0.951280
	N8389	N	0.747137	0.164283	0.950483
	N8390	N	0.636948	0.279718	0.547608
	N8391	N	0.693770	0.155359	0.548608
	N8392	N	0.680022	0.155353	0.700701
	N8393	N	0.742451	0.218329	0.700523
	N8394	N	0.629228	0.122186	0.797398
	N8395	N	0.691731	0.184462	0.797396
	N8396	N	0.629220	0.122114	0.700781
	N8397	N	0.691722	0.184545	0.700794
	N8398	N	0.680044	0.155245	0.797731
	N8399	N	0.742515	0.218062	0.797197
	H8400	H	0.640400	0.358740	0.347934
	H8401	H	0.705838	0.327825	0.348639
	H8402	H	0.677185	0.373014	0.151194
	H8403	H	0.735896	0.261424	0.150003
	H8404	H	0.677214	0.372630	0.346440
	H8405	H	0.735870	0.261618	0.348376
	H8406	H	0.640425	0.358831	0.151615
	H8407	H	0.705667	0.327354	0.149304
	H8408	H	0.680701	0.332721	0.097090
	H8409	H	0.743431	0.394814	0.099250
	H8410	H	0.644593	0.312887	0.402498
	H8411	H	0.707041	0.375652	0.400710
	H8412	H	0.644490	0.313383	0.099348
	H8413	H	0.707200	0.375135	0.098412
	H8414	H	0.680729	0.332683	0.400873
	H8415	H	0.743217	0.395335	0.403439
	H8416	H	0.652615	0.361590	0.349332
	H8417	H	0.715894	0.306911	0.535978
	H8418	H	0.665188	0.368130	-0.151080
	H8419	H	0.726061	0.283095	0.047415
	H8420	H	0.665127	0.367958	0.348913
	H8421	H	0.726424	0.284119	0.535577
	H8422	H	0.652701	0.361594	-0.151090
	H8423	H	0.715603	0.306012	0.047204
	H8424	H	0.669202	0.322939	0.101316
	H8425	H	0.731783	0.386166	0.102814
	H8426	H	0.656651	0.317486	0.398302
	H8427	H	0.719307	0.378648	0.398478
	H8428	H	0.656600	0.317400	0.101646
	H8429	H	0.719167	0.380367	0.101993
	H8430	H	0.669273	0.323077	0.397395
	H8431	H	0.731914	0.384589	0.399218
	Co8432	Co	0.755427	0.421220	0.126874
	Co8433	Co	0.692867	0.358583	0.123909
	Co8434	Co	0.630345	0.295942	0.375270
	Co8435	Co	0.692896	0.358564	0.374149
	C8436	C	0.639122	0.359509	0.422439
	C8437	C	0.704839	0.330077	0.422274
	C8438	C	0.678515	0.372532	0.077120
	C8439	C	0.736868	0.259323	0.076116
	C8440	C	0.678501	0.372244	0.421332
	C8441	C	0.736920	0.259489	0.421743
	C8442	C	0.639137	0.359731	0.077113
	C8443	C	0.704758	0.329835	0.075808
	C8444	C	0.681685	0.334381	0.171482
	C8445	C	0.744342	0.396755	0.173969
	C8446	C	0.643332	0.312331	0.327853
	C8447	C	0.705874	0.374814	0.326772
	C8448	C	0.643286	0.312632	0.173300
	C8449	C	0.705941	0.374535	0.172452
	C8450	C	0.681696	0.334364	0.326357
	C8451	C	0.744233	0.397005	0.329156
	C8452	C	0.643804	0.358468	0.500158
	C8453	C	0.708527	0.321870	-0.001250
	C8454	C	0.673878	0.372147	0.499166
	C8455	C	0.733238	0.267784	-0.000980
	C8456	C	0.677672	0.329257	0.248886
	C8457	C	0.740262	0.391805	0.251267
	C8458	C	0.647791	0.314639	0.250471
	C8459	C	0.710398	0.376800	0.249816
	C8460	C	0.651553	0.360677	0.499881
	C8461	C	0.714798	0.308215	-0.001144
	C8462	C	0.666248	0.368762	0.499478
	C8463	C	0.727022	0.281586	-0.000926
	C8464	C	0.670336	0.323821	0.249231
	C8465	C	0.732926	0.386291	0.250809
	C8466	C	0.655451	0.317404	0.250196
	C8467	C	0.718084	0.379555	0.250314
	C8468	C	0.655323	0.362773	0.416055
	C8469	C	0.718059	0.301651	0.519621
	C8470	C	0.662496	0.366805	-0.084441
	C8471	C	0.723843	0.288295	0.026253
	C8472	C	0.662440	0.366619	0.415817
	C8473	C	0.724019	0.288752	0.519509
	C8474	C	0.655369	0.363003	-0.084328
	C8475	C	0.717891	0.301212	0.026111
	C8476	C	0.666509	0.321836	0.167122
	C8477	C	0.729103	0.384620	0.168115
	C8478	C	0.659337	0.318742	0.332435
	C8479	C	0.721996	0.380481	0.333151
	C8480	C	0.659306	0.318713	0.167415
	C8481	C	0.721917	0.381310	0.167773
	C8482	C	0.666560	0.321812	0.331964
	C8483	C	0.729191	0.383718	0.333327
	N8484	N	0.632155	0.361961	0.451367
	N8485	N	0.699423	0.342132	0.451477
	N8486	N	0.685485	0.371887	0.048526
	N8487	N	0.742271	0.247255	0.046548
	N8488	N	0.685476	0.371654	0.449947
	N8489	N	0.742305	0.247291	0.451070
	N8490	N	0.632169	0.362009	0.048676
	N8491	N	0.699395	0.342063	0.046628
	N8492	N	0.687439	0.342428	0.200635
	N8493	N	0.750114	0.404772	0.203418
	N8494	N	0.636696	0.308991	0.299318
	N8495	N	0.699248	0.371438	0.297716
	N8496	N	0.636684	0.309111	0.202178
	N8497	N	0.699308	0.371212	0.200817
	N8498	N	0.687452	0.342430	0.297241
	N8499	N	0.750018	0.405052	0.300088
	H8500	H	0.640414	0.359045	0.847567
	H8501	H	0.706040	0.328488	0.848058
	H8502	H	0.677166	0.373132	0.652009
	H8503	H	0.736096	0.262004	0.649969
	H8504	H	0.677233	0.372936	0.846979
	H8505	H	0.736092	0.262003	0.847647
	H8506	H	0.640438	0.358853	0.652578
	H8507	H	0.705798	0.327747	0.650031
	H8508	H	0.680692	0.332929	0.597658
	H8509	H	0.743415	0.394832	0.599660
	H8510	H	0.644680	0.312563	0.900642
	H8511	H	0.706951	0.376312	0.900851
	H8512	H	0.644540	0.313374	0.599060
	H8513	H	0.707180	0.374977	0.598835
	H8514	H	0.680816	0.332756	0.901171
	H8515	H	0.743077	0.395784	0.903481
	H8516	H	0.652699	0.361457	1.149465
	H8517	H	0.715798	0.306615	0.950323
	H8518	H	0.665222	0.367676	0.649975
	H8519	H	0.725963	0.282668	0.463052
	H8520	H	0.665172	0.367936	1.149675
	H8521	H	0.726273	0.283782	0.951055
	H8522	H	0.652739	0.361155	0.650387
	H8523	H	0.715473	0.305589	0.463117
	H8524	H	0.669303	0.322859	0.601175
	H8525	H	0.731769	0.386402	0.602406
	H8526	H	0.656714	0.317459	0.898354
	H8527	H	0.719267	0.379063	0.898482
	H8528	H	0.656738	0.317098	0.601455
	H8529	H	0.719163	0.380828	0.601758
	H8530	H	0.669329	0.323125	0.898311
	H8531	H	0.731910	0.384712	0.899047
	Co8532	Co	0.755416	0.421257	0.626612
	Co8533	Co	0.692856	0.358891	0.624192
	Co8534	Co	0.630407	0.296034	0.875168
	Co8535	Co	0.692922	0.358868	0.874096
	C8536	C	0.639128	0.359727	0.922059
	C8537	C	0.704944	0.330400	0.921568
	C8538	C	0.678493	0.372530	0.576797
	C8539	C	0.737019	0.259623	0.576126
	C8540	C	0.678537	0.372487	0.921667
	C8541	C	0.736971	0.259637	0.921890
	C8542	C	0.639138	0.359570	0.577904
	C8543	C	0.704801	0.330041	0.576320
	C8544	C	0.681741	0.334531	0.671941
	C8545	C	0.744347	0.396750	0.673839
	C8546	C	0.643416	0.312151	0.827315
	C8547	C	0.705789	0.375403	0.826756
	C8548	C	0.643347	0.312487	0.672994
	C8549	C	0.705900	0.374715	0.672438
	C8550	C	0.681787	0.334470	0.826830
	C8551	C	0.744210	0.397157	0.829154
	C8552	C	0.643830	0.358759	0.999406
	C8553	C	0.708515	0.321789	0.499382
	C8554	C	0.673876	0.372294	0.999332
	C8555	C	0.733305	0.267820	0.499113
	C8556	C	0.677719	0.329461	0.749524
	C8557	C	0.740253	0.391882	0.751209
	C8558	C	0.647905	0.314382	0.750041
	C8559	C	0.710366	0.377159	0.749885
	C8560	C	0.651556	0.360983	0.999261
	C8561	C	0.714795	0.308102	0.499552
	C8562	C	0.666247	0.368958	0.999193
	C8563	C	0.727041	0.281512	0.499154
	C8564	C	0.670412	0.323842	0.749813
	C8565	C	0.732923	0.386399	0.750806
	C8566	C	0.655559	0.317203	0.749968
	C8567	C	0.718049	0.379890	0.750172
	C8568	C	0.655370	0.362835	1.082825
	C8569	C	0.718019	0.301564	0.971874
	C8570	C	0.662505	0.366404	0.583304
	C8571	C	0.723788	0.287944	0.478994
	C8572	C	0.662494	0.366639	1.082723
	C8573	C	0.723941	0.288573	0.972117
	C8574	C	0.655390	0.362545	0.583380
	C8575	C	0.717833	0.300901	0.479252
	C8576	C	0.666619	0.321712	0.667078
	C8577	C	0.729094	0.384862	0.667965
	C8578	C	0.659406	0.318664	0.832660
	C8579	C	0.721952	0.380725	0.832850
	C8580	C	0.659417	0.318441	0.667154
	C8581	C	0.721878	0.381660	0.667651
	C8582	C	0.666610	0.321921	0.832637
	C8583	C	0.729159	0.383969	0.833247
	N8584	N	0.632164	0.361994	0.951002
	N8585	N	0.699496	0.342376	0.950826
	N8586	N	0.685469	0.371831	0.548212
	N8587	N	0.742373	0.247395	0.546598
	N8588	N	0.685492	0.371832	0.950388
	N8589	N	0.742326	0.247423	0.951239
	N8590	N	0.632178	0.361985	0.549028
	N8591	N	0.699407	0.342157	0.547126
	N8592	N	0.687493	0.342638	0.701071
	N8593	N	0.750075	0.404881	0.703461
	N8594	N	0.636799	0.308765	0.798629
	N8595	N	0.699174	0.371967	0.797760
	N8596	N	0.636739	0.309056	0.701745
	N8597	N	0.699248	0.371583	0.700910
	N8598	N	0.687537	0.342549	0.797679
	N8599	N	0.750016	0.405053	0.800096
	H8600	H	0.634536	0.446188	0.348082
	H8601	H	0.702910	0.421777	0.346646
	H8602	H	0.671775	0.455660	0.152244
	H8603	H	0.739682	0.434815	0.154149
	H8604	H	0.671732	0.455983	0.347512
	H8605	H	0.739670	0.435686	0.349297
	H8606	H	0.634439	0.446597	0.152525
	H8607	H	0.702891	0.421095	0.151306
	H8608	H	0.674302	0.415859	0.096801
	H8609	H	0.736949	0.477906	0.100037
	H8610	H	0.637602	0.399025	0.401870
	H8611	H	0.699986	0.462200	0.400838
	H8612	H	0.637575	0.399312	0.097552
	H8613	H	0.700141	0.461475	0.097257
	H8614	H	0.674288	0.416129	0.401993
	H8615	H	0.736703	0.478757	0.404305
	H8616	H	0.646730	0.448600	0.349467
	H8617	H	0.715317	0.422981	0.349960
	H8618	H	0.659489	0.453326	0.150568
	H8619	H	0.727543	0.430682	0.151506
	H8620	H	0.659434	0.453658	0.349188
	H8621	H	0.727780	0.429467	0.350821
	H8622	H	0.646839	0.448277	0.151188
	H8623	H	0.715095	0.424235	0.151097
	H8624	H	0.662242	0.410048	0.099100
	H8625	H	0.724754	0.471937	0.401791
	H8626	H	0.649489	0.405948	0.400659
	H8627	H	0.712046	0.469057	0.098712
	H8628	H	0.649548	0.405639	0.098933
	H8629	H	0.712052	0.467569	0.400162
	H8630	H	0.662242	0.410450	0.400463
	H8631	H	0.724781	0.473169	0.099940
	Co8632	Co	0.749791	0.500788	0.127066
	Co8633	Co	0.687348	0.438194	0.123252
	Co8634	Co	0.624813	0.375687	0.375763
	Co8635	Co	0.687287	0.438471	0.374323
	C8636	C	0.633261	0.447289	0.422726
	C8637	C	0.701606	0.422378	0.421685
	C8638	C	0.673052	0.454782	0.077630
	C8639	C	0.741009	0.434700	0.079748
	C8640	C	0.673039	0.454983	0.421955
	C8641	C	0.740981	0.435049	0.423715
	C8642	C	0.633228	0.447531	0.078342
	C8643	C	0.701608	0.421982	0.076802
	C8644	C	0.675403	0.417152	0.171882
	C8645	C	0.737978	0.479408	0.174562
	C8646	C	0.636518	0.397660	0.327363
	C8647	C	0.698966	0.460569	0.326520
	C8648	C	0.636520	0.397728	0.172208
	C8649	C	0.699045	0.460210	0.171661
	C8650	C	0.675390	0.417381	0.326951
	C8651	C	0.737844	0.479802	0.329608
	C8652	C	0.637930	0.446190	0.500180
	C8653	C	0.706329	0.421175	-0.000499
	C8654	C	0.668362	0.455977	0.499777
	C8655	C	0.736351	0.434808	0.001855
	C8656	C	0.671065	0.413793	0.249620
	C8657	C	0.733598	0.476060	0.251611
	C8658	C	0.640779	0.401589	0.249786
	C8659	C	0.703271	0.464292	0.249081
	C8660	C	0.645700	0.447861	0.499862
	C8661	C	0.714055	0.423309	0.000204
	C8662	C	0.660599	0.454155	0.499926
	C8663	C	0.728728	0.431418	0.001135
	C8664	C	0.663422	0.410424	0.249975
	C8665	C	0.725962	0.472751	0.250886
	C8666	C	0.648358	0.405400	0.249992
	C8667	C	0.710869	0.468006	0.249378
	C8668	C	0.649512	0.449563	0.415908
	C8669	C	0.717913	0.424718	0.416851
	C8670	C	0.656761	0.452422	0.083933
	C8671	C	0.724898	0.429306	0.084517
	C8672	C	0.656737	0.452584	0.416176
	C8673	C	0.725042	0.428596	0.417413
	C8674	C	0.649549	0.449423	0.084214
	C8675	C	0.717784	0.425423	0.084199
	C8676	C	0.659528	0.409118	0.166104
	C8677	C	0.722047	0.471270	0.334546
	C8678	C	0.652226	0.406850	0.333822
	C8679	C	0.714747	0.469719	0.165930
	C8680	C	0.652250	0.406605	0.166097
	C8681	C	0.714764	0.468815	0.333567
	C8682	C	0.659501	0.409370	0.333706
	C8683	C	0.722044	0.472006	0.166684
	N8684	N	0.626329	0.449958	0.451841
	N8685	N	0.694667	0.424654	0.449954
	N8686	N	0.680001	0.452169	0.048338
	N8687	N	0.747957	0.434085	0.051624
	N8688	N	0.680007	0.452355	0.450348
	N8689	N	0.747957	0.434301	0.452762
	N8690	N	0.626274	0.450273	0.049402
	N8691	N	0.694670	0.424501	0.047886
	N8692	N	0.681686	0.422967	0.200557
	N8693	N	0.744214	0.485346	0.203775
	N8694	N	0.630373	0.391241	0.298405
	N8695	N	0.692822	0.454076	0.297284
	N8696	N	0.630370	0.391301	0.201180
	N8697	N	0.692887	0.453845	0.200364
	N8698	N	0.681690	0.423043	0.297785
	N8699	N	0.744129	0.485624	0.301122
	H8700	H	0.634470	0.446538	0.848985
	H8701	H	0.702950	0.421809	0.847435
	H8702	H	0.671889	0.455694	0.652191
	H8703	H	0.739631	0.435059	0.654293
	H8704	H	0.671695	0.455732	0.847649
	H8705	H	0.739719	0.435798	0.849239
	H8706	H	0.634548	0.446569	0.653112
	H8707	H	0.702811	0.420794	0.651396
	H8708	H	0.674356	0.415884	0.597529
	H8709	H	0.736996	0.477987	0.600019
	H8710	H	0.637628	0.398998	0.901730
	H8711	H	0.699975	0.462445	0.901441
	H8712	H	0.637527	0.399342	0.597902
	H8713	H	0.700374	0.460914	0.597209
	H8714	H	0.674382	0.415903	0.901496
	H8715	H	0.736770	0.478706	0.904242
	H8716	H	0.646747	0.448528	0.849927
	H8717	H	0.715315	0.423432	0.849216
	H8718	H	0.659437	0.453226	0.651342
	H8719	H	0.727465	0.431176	0.651404
	H8720	H	0.659445	0.453531	0.849384
	H8721	H	0.727814	0.429961	0.850177
	H8722	H	0.646860	0.448061	0.650853
	H8723	H	0.714976	0.424558	0.650606
	H8724	H	0.662330	0.409710	0.598658
	H8725	H	0.724825	0.473402	0.600716
	H8726	H	0.649576	0.406055	0.900784
	H8727	H	0.712135	0.467287	0.901091
	H8728	H	0.649600	0.405288	0.598512
	H8729	H	0.712122	0.468771	0.599597
	H8730	H	0.662267	0.410328	0.900480
	H8731	H	0.724807	0.471902	0.902801
	Co8732	Co	0.749881	0.500804	0.627252
	Co8733	Co	0.687374	0.438281	0.623423
	Co8734	Co	0.624861	0.375672	0.875223
	Co8735	Co	0.687321	0.438537	0.875118
	C8736	C	0.633202	0.447518	0.923380
	C8737	C	0.701648	0.422477	0.921569
	C8738	C	0.673093	0.454735	0.577243
	C8739	C	0.740974	0.434759	0.579458
	C8740	C	0.673030	0.454866	0.922130
	C8741	C	0.741042	0.435201	0.924342
	C8742	C	0.633277	0.447452	0.577951
	C8743	C	0.701553	0.421847	0.576612
	C8744	C	0.675450	0.417217	0.671781
	C8745	C	0.738036	0.479500	0.674664
	C8746	C	0.636546	0.397697	0.827288
	C8747	C	0.698981	0.460623	0.826760
	C8748	C	0.636516	0.397771	0.672376
	C8749	C	0.699200	0.459823	0.671863
	C8750	C	0.675446	0.417281	0.827010
	C8751	C	0.737920	0.479904	0.829748
	C8752	C	0.637889	0.446309	1.000575
	C8753	C	0.706288	0.421061	0.499559
	C8754	C	0.668355	0.455977	0.999759
	C8755	C	0.736310	0.434723	0.501639
	C8756	C	0.671106	0.413738	0.749357
	C8757	C	0.733647	0.476226	0.751940
	C8758	C	0.640817	0.401580	0.749717
	C8759	C	0.703347	0.464034	0.749728
	C8760	C	0.645676	0.447948	1.000366
	C8761	C	0.714012	0.423262	0.500155
	C8762	C	0.660570	0.454202	0.999879
	C8763	C	0.728710	0.431392	0.501294
	C8764	C	0.663471	0.410285	0.749429
	C8765	C	0.726026	0.472807	0.751603
	C8766	C	0.648396	0.405267	0.749628
	C8767	C	0.710951	0.467768	0.750402
	C8768	C	0.649503	0.449566	0.916502
	C8769	C	0.717923	0.425016	0.916376
	C8770	C	0.656774	0.452339	0.583841
	C8771	C	0.724860	0.429572	0.584435
	C8772	C	0.656720	0.452573	0.916345
	C8773	C	0.725061	0.428853	0.916762
	C8774	C	0.649555	0.449323	0.583945
	C8775	C	0.717732	0.425640	0.583984
	C8776	C	0.659585	0.408934	0.665470
	C8777	C	0.722120	0.471969	0.667586
	C8778	C	0.652268	0.406788	0.833494
	C8779	C	0.714849	0.468700	0.834554
	C8780	C	0.652295	0.406410	0.665656
	C8781	C	0.714839	0.469534	0.666831
	C8782	C	0.659555	0.409303	0.833416
	C8783	C	0.722134	0.471147	0.835112
	N8784	N	0.626260	0.450295	0.951887
	N8785	N	0.694682	0.424806	0.950341
	N8786	N	0.680041	0.452245	0.548169
	N8787	N	0.747939	0.434158	0.550979
	N8788	N	0.679984	0.452275	0.950829
	N8789	N	0.748001	0.434341	0.953423
	N8790	N	0.626334	0.450013	0.549172
	N8791	N	0.694633	0.424349	0.547744
	N8792	N	0.681710	0.423095	0.700762
	N8793	N	0.744290	0.485393	0.703985
	N8794	N	0.630386	0.391346	0.798714
	N8795	N	0.692851	0.454077	0.797522
	N8796	N	0.630378	0.391368	0.701350
	N8797	N	0.692984	0.453683	0.700408
	N8798	N	0.681714	0.423123	0.797994
	N8799	N	0.744237	0.485501	0.801242
	H8800	H	0.629148	0.529367	0.349222
	H8801	H	0.697101	0.509264	0.347855
	H8802	H	0.665832	0.542924	0.152826
	H8803	H	0.734180	0.517965	0.154924
	H8804	H	0.665968	0.543083	0.347149
	H8805	H	0.734358	0.518728	0.349548
	H8806	H	0.629085	0.529171	0.152922
	H8807	H	0.696908	0.508654	0.151298
	H8808	H	0.668667	0.503071	0.097367
	H8809	H	0.731173	0.565408	0.100028
	H8810	H	0.632023	0.486075	0.402458
	H8811	H	0.694319	0.548990	0.402066
	H8812	H	0.631952	0.486640	0.098429
	H8813	H	0.694434	0.548602	0.097549
	H8814	H	0.668739	0.502959	0.401577
	H8815	H	0.731130	0.565462	0.403603
	H8816	H	0.641124	0.534792	0.350339
	H8817	H	0.709452	0.510651	0.349545
	H8818	H	0.653628	0.540803	0.150294
	H8819	H	0.721762	0.517140	0.152010
	H8820	H	0.653576	0.541315	0.350198
	H8821	H	0.722110	0.515666	0.350030
	H8822	H	0.641071	0.534377	0.150678
	H8823	H	0.709124	0.511946	0.150726
	H8824	H	0.656677	0.496469	0.099726
	H8825	H	0.719151	0.559603	0.100612
	H8826	H	0.643992	0.492021	0.401609
	H8827	H	0.706514	0.554035	0.401590
	H8828	H	0.643963	0.491953	0.100324
	H8829	H	0.706425	0.555519	0.099830
	H8830	H	0.656741	0.496640	0.400863
	H8831	H	0.719160	0.558644	0.401864
	Co8832	Co	0.743916	0.588825	0.126868
	Co8833	Co	0.681410	0.526329	0.123711
	Co8834	Co	0.618955	0.463762	0.376100
	Co8835	Co	0.681522	0.526107	0.374405
	C8836	C	0.627846	0.529906	0.423858
	C8837	C	0.695806	0.509956	0.422347
	C8838	C	0.667125	0.542482	0.078095
	C8839	C	0.735486	0.517213	0.079978
	C8840	C	0.667234	0.542380	0.421967
	C8841	C	0.735612	0.517596	0.424393
	C8842	C	0.627773	0.529707	0.078062
	C8843	C	0.695663	0.509728	0.076689
	C8844	C	0.669737	0.504388	0.172040
	C8845	C	0.732226	0.566911	0.174399
	C8846	C	0.630856	0.484911	0.328117
	C8847	C	0.693280	0.547654	0.327213
	C8848	C	0.630817	0.485174	0.173229
	C8849	C	0.693338	0.547466	0.172265
	C8850	C	0.669793	0.504302	0.326942
	C8851	C	0.732213	0.566895	0.329393
	C8852	C	0.632489	0.530290	0.501530
	C8853	C	0.700376	0.508948	-0.000670
	C8854	C	0.662556	0.543760	0.499800
	C8855	C	0.730808	0.518537	0.001997
	C8856	C	0.665454	0.500540	0.249793
	C8857	C	0.727927	0.563168	0.251724
	C8858	C	0.635178	0.488492	0.250850
	C8859	C	0.697647	0.551090	0.249896
	C8860	C	0.640099	0.533757	0.500921
	C8861	C	0.708153	0.510578	-0.000094
	C8862	C	0.654816	0.541708	0.500295
	C8863	C	0.723053	0.516851	0.001193
	C8864	C	0.657879	0.496832	0.250249
	C8865	C	0.720328	0.559532	0.251407
	C8866	C	0.642809	0.491870	0.250963
	C8867	C	0.705248	0.554584	0.250638
	C8868	C	0.643826	0.536110	0.417047
	C8869	C	0.712138	0.511812	0.416745
	C8870	C	0.650907	0.539455	0.084055
	C8871	C	0.719136	0.515710	0.084736
	C8872	C	0.650955	0.539859	0.416983
	C8873	C	0.719370	0.514756	0.416924
	C8874	C	0.643798	0.535528	0.084103
	C8875	C	0.711914	0.512646	0.084247
	C8876	C	0.653985	0.495500	0.166818
	C8877	C	0.716435	0.558482	0.167378
	C8878	C	0.646708	0.493061	0.334696
	C8879	C	0.709168	0.555405	0.334497
	C8880	C	0.646700	0.493042	0.167050
	C8881	C	0.709134	0.556153	0.167046
	C8882	C	0.654008	0.495534	0.334124
	C8883	C	0.716447	0.557937	0.334972
	N8884	N	0.620882	0.530624	0.452542
	N8885	N	0.688847	0.512431	0.450778
	N8886	N	0.674081	0.540247	0.049025
	N8887	N	0.742432	0.514656	0.051451
	N8888	N	0.674176	0.539846	0.450357
	N8889	N	0.742546	0.514776	0.453701
	N8890	N	0.620815	0.530447	0.049788
	N8891	N	0.688744	0.512567	0.047561
	N8892	N	0.675925	0.510642	0.200644
	N8893	N	0.738407	0.573155	0.203695
	N8894	N	0.624578	0.479208	0.299272
	N8895	N	0.687038	0.541794	0.298306
	N8896	N	0.624541	0.479418	0.201930
	N8897	N	0.687107	0.541561	0.200800
	N8898	N	0.675956	0.510581	0.297780
	N8899	N	0.738406	0.573116	0.300852
	H8900	H	0.629044	0.529328	0.848199
	H8901	H	0.697025	0.509818	0.846867
	H8902	H	0.666045	0.543831	0.651562
	H8903	H	0.734310	0.518002	0.653685
	H8904	H	0.665862	0.543559	0.848032
	H8905	H	0.734322	0.518598	0.850045
	H8906	H	0.629162	0.529898	0.653676
	H8907	H	0.697030	0.508752	0.652408
	H8908	H	0.668772	0.502871	0.597907
	H8909	H	0.731374	0.565250	0.599625
	H8910	H	0.632033	0.486331	0.902534
	H8911	H	0.694383	0.549488	0.900863
	H8912	H	0.631997	0.486327	0.598387
	H8913	H	0.694652	0.548353	0.597188
	H8914	H	0.668666	0.503476	0.901892
	H8915	H	0.731148	0.565637	0.903645
	H8916	H	0.641173	0.533902	0.850297
	H8917	H	0.709428	0.510331	0.848944
	H8918	H	0.653753	0.541069	0.650696
	H8919	H	0.721960	0.516836	0.652129
	H8920	H	0.653609	0.540607	0.849909
	H8921	H	0.722076	0.515296	0.850253
	H8922	H	0.641259	0.534625	0.651061
	H8923	H	0.709318	0.511664	0.651890
	H8924	H	0.656772	0.496531	0.599706
	H8925	H	0.719271	0.559564	0.599555
	H8926	H	0.644036	0.491970	0.900795
	H8927	H	0.706599	0.553739	0.900475
	H8928	H	0.644075	0.491988	0.599620
	H8929	H	0.706571	0.555436	0.598512
	H8930	H	0.656798	0.496559	0.900327
	H8931	H	0.719329	0.558179	0.901108
	Co8932	Co	0.744004	0.588985	0.627145
	Co8933	Co	0.681517	0.526304	0.623309
	Co8934	Co	0.618918	0.464220	0.875859
	Co8935	Co	0.681435	0.526922	0.874679
	C8936	C	0.627762	0.529817	0.922961
	C8937	C	0.695706	0.510374	0.921342
	C8938	C	0.667277	0.542767	0.577106
	C8939	C	0.735572	0.517218	0.579607
	C8940	C	0.667113	0.542774	0.922621
	C8941	C	0.735545	0.517536	0.924531
	C8942	C	0.627852	0.530220	0.579329
	C8943	C	0.695755	0.509611	0.577630
	C8944	C	0.669792	0.504449	0.672477
	C8945	C	0.732378	0.566796	0.674059
	C8946	C	0.630914	0.485013	0.827857
	C8947	C	0.693336	0.547899	0.826360
	C8948	C	0.630916	0.485006	0.672667
	C8949	C	0.693466	0.547317	0.671659
	C8950	C	0.669777	0.504767	0.827444
	C8951	C	0.732252	0.567136	0.829156
	C8952	C	0.632423	0.529873	1.000474
	C8953	C	0.700476	0.508692	0.500273
	C8954	C	0.662460	0.543505	1.000488
	C8955	C	0.730909	0.518566	0.501663
	C8956	C	0.665524	0.500696	0.750225
	C8957	C	0.728056	0.563021	0.751311
	C8958	C	0.635264	0.488437	0.750406
	C8959	C	0.697755	0.551029	0.749248
	C8960	C	0.640062	0.533159	1.000549
	C8961	C	0.708259	0.510443	0.500671
	C8962	C	0.654723	0.541296	1.000436
	C8963	C	0.723157	0.516753	0.501064
	C8964	C	0.657950	0.496898	0.750205
	C8965	C	0.720476	0.559220	0.750483
	C8966	C	0.642898	0.491796	0.750419
	C8967	C	0.705394	0.554356	0.749527
	C8968	C	0.643825	0.535418	0.916992
	C8969	C	0.712076	0.511763	0.916035
	C8970	C	0.651056	0.539767	0.584145
	C8971	C	0.719273	0.515494	0.584978
	C8972	C	0.650934	0.539294	0.916821
	C8973	C	0.719312	0.514661	0.916911
	C8974	C	0.643926	0.535922	0.584309
	C8975	C	0.712055	0.512463	0.584756
	C8976	C	0.654078	0.495526	0.666548
	C8977	C	0.716580	0.558332	0.666519
	C8978	C	0.646783	0.493002	0.833966
	C8979	C	0.709320	0.555048	0.833602
	C8980	C	0.646792	0.493021	0.666633
	C8981	C	0.709285	0.555947	0.665805
	C8982	C	0.654062	0.495553	0.833694
	C8983	C	0.716601	0.557491	0.834071
	N8984	N	0.620803	0.530548	0.951727
	N8985	N	0.688762	0.512880	0.949946
	N8986	N	0.674217	0.540059	0.547914
	N8987	N	0.742517	0.514615	0.551202
	N8988	N	0.674078	0.540375	0.951300
	N8989	N	0.742481	0.514888	0.953745
	N8990	N	0.620883	0.530733	0.550885
	N8991	N	0.688809	0.512285	0.548240
	N8992	N	0.675954	0.510931	0.701147
	N8993	N	0.738509	0.573320	0.703690
	N8994	N	0.624632	0.479363	0.798962
	N8995	N	0.687101	0.542026	0.797307
	N8996	N	0.624641	0.479251	0.701750
	N8997	N	0.687151	0.541776	0.700014
	N8998	N	0.675935	0.511145	0.798265
	N8999	N	0.738428	0.573494	0.800685
	H9000	H	0.635677	0.710767	0.348149
	H9001	H	0.691680	0.592345	0.346401
	H9002	H	0.663639	0.638028	0.150730
	H9003	H	0.728298	0.605628	0.154163
	H9004	H	0.663551	0.638606	0.349288
	H9005	H	0.728438	0.605913	0.349677
	H9006	H	0.635698	0.710602	0.148731
	H9007	H	0.691565	0.591454	0.152468
	H9008	H	0.661728	0.589247	0.099002
	H9009	H	0.724214	0.651873	0.100893
	H9010	H	0.625563	0.569797	0.401643
	H9011	H	0.687948	0.632562	0.401018
	H9012	H	0.625628	0.569242	0.098907
	H9013	H	0.688266	0.631459	0.098033
	H9014	H	0.661616	0.589863	0.399964
	H9015	H	0.724082	0.652121	0.402729
	H9016	H	0.644821	0.687116	0.516700
	H9017	H	0.703568	0.597524	0.650782
	H9018	H	0.654522	0.661790	-0.065069
	H9019	H	0.716232	0.602362	-0.149330
	H9020	H	0.654490	0.662114	0.517982
	H9021	H	0.716017	0.604019	0.651476
	H9022	H	0.644941	0.687041	-0.065739
	H9023	H	0.703764	0.596006	-0.150161
	H9024	H	0.649668	0.584432	0.102340
	H9025	H	0.712004	0.648759	0.103174
	H9026	H	0.636921	0.579827	0.397337
	H9027	H	0.699482	0.641238	0.397663
	H9028	H	0.637021	0.578614	0.102239
	H9029	H	0.699403	0.642912	0.102286
	H9030	H	0.649526	0.585818	0.397001
	H9031	H	0.712086	0.647107	0.398344
	Co9032	Co	0.738437	0.668345	0.127280
	Co9033	Co	0.675958	0.605906	0.124021
	Co9034	Co	0.613471	0.543606	0.376504
	Co9035	Co	0.675918	0.606277	0.374284
	C9036	C	0.634769	0.713171	0.421204
	C9037	C	0.690325	0.592573	0.421272
	C9038	C	0.664458	0.635725	0.076818
	C9039	C	0.729598	0.604881	0.079414
	C9040	C	0.664429	0.635977	0.422725
	C9041	C	0.729748	0.605040	0.424223
	C9042	C	0.634813	0.713011	0.075713
	C9043	C	0.690249	0.592069	0.077037
	C9044	C	0.662913	0.589954	0.172355
	C9045	C	0.725386	0.652575	0.174917
	C9046	C	0.624553	0.567920	0.327520
	C9047	C	0.687009	0.630588	0.326625
	C9048	C	0.624602	0.567611	0.173002
	C9049	C	0.687158	0.630086	0.171889
	C9050	C	0.662861	0.590347	0.326429
	C9051	C	0.725331	0.652715	0.329206
	C9052	C	0.638063	0.703897	0.497684
	C9053	C	0.694908	0.592508	-0.000232
	C9054	C	0.660911	0.644624	0.500107
	C9055	C	0.724939	0.606196	0.001553
	C9056	C	0.658397	0.587948	0.249466
	C9057	C	0.720854	0.650673	0.251793
	C9058	C	0.628592	0.572869	0.250037
	C9059	C	0.691082	0.635490	0.249447
	C9060	C	0.643789	0.688799	0.498381
	C9061	C	0.702525	0.595988	0.000089
	C9062	C	0.655109	0.659585	0.499732
	C9063	C	0.717214	0.603992	0.000926
	C9064	C	0.650738	0.585154	0.249702
	C9065	C	0.713184	0.647952	0.250933
	C9066	C	0.635915	0.578433	0.249810
	C9067	C	0.698381	0.641181	0.250001
	C9068	C	0.646814	0.681516	0.509079
	C9069	C	0.706286	0.598507	0.583970
	C9070	C	0.652361	0.667216	-0.036521
	C9071	C	0.713511	0.601401	-0.082938
	C9072	C	0.652298	0.667305	0.509711
	C9073	C	0.713414	0.602360	0.584359
	C9074	C	0.646895	0.681442	-0.036853
	C9075	C	0.706376	0.597655	-0.083450
	C9076	C	0.646919	0.583333	0.167530
	C9077	C	0.709315	0.647073	0.168286
	C9078	C	0.639659	0.580872	0.332003
	C9079	C	0.702165	0.642809	0.332443
	C9080	C	0.639729	0.580047	0.167421
	C9081	C	0.702123	0.643767	0.167866
	C9082	C	0.646847	0.584148	0.331934
	C9083	C	0.709352	0.646094	0.332941
	N9084	N	0.629910	0.726661	0.450109
	N9085	N	0.683375	0.593267	0.449693
	N9086	N	0.669524	0.622778	0.047117
	N9087	N	0.736569	0.602593	0.051079
	N9088	N	0.669511	0.623041	0.451817
	N9089	N	0.736676	0.602569	0.453385
	N9090	N	0.629895	0.726379	0.046347
	N9091	N	0.683295	0.592771	0.048095
	N9092	N	0.669543	0.593371	0.201051
	N9093	N	0.732039	0.655731	0.204097
	N9094	N	0.618777	0.559887	0.298753
	N9095	N	0.681291	0.622408	0.297237
	N9096	N	0.618837	0.559620	0.202415
	N9097	N	0.681388	0.622062	0.200992
	N9098	N	0.669511	0.593615	0.297889
	N9099	N	0.732008	0.655780	0.300921
	H9100	H	0.635872	0.710568	0.849983
	H9101	H	0.691614	0.592261	0.847091
	H9102	H	0.663341	0.638015	0.650700
	H9103	H	0.728380	0.605764	0.653855
	H9104	H	0.663351	0.637963	0.849156
	H9105	H	0.728422	0.606280	0.849705
	H9106	H	0.635549	0.710494	0.647154
	H9107	H	0.691636	0.591829	0.650940
	H9108	H	0.661697	0.589471	0.597559
	H9109	H	0.724288	0.651311	0.600897
	H9110	H	0.625599	0.569899	0.902575
	H9111	H	0.687921	0.632358	0.902151
	H9112	H	0.625579	0.569754	0.599340
	H9113	H	0.688207	0.631607	0.598031
	H9114	H	0.661742	0.589357	0.900448
	H9115	H	0.724106	0.652100	0.903218
	H9116	H	0.644569	0.686404	1.065317
	H9117	H	0.703423	0.598026	1.150206
	H9118	H	0.654101	0.661358	0.481415
	H9119	H	0.716265	0.602921	0.350107
	H9120	H	0.654216	0.661273	1.065365
	H9121	H	0.715902	0.604628	1.150563
	H9122	H	0.644405	0.686356	0.480090
	H9123	H	0.703792	0.596542	0.349445
	H9124	H	0.649530	0.585610	0.601350
	H9125	H	0.712043	0.648317	0.603364
	H9126	H	0.637090	0.579057	0.898208
	H9127	H	0.699502	0.640953	0.898837
	H9128	H	0.636897	0.579880	0.602283
	H9129	H	0.699405	0.642558	0.602766
	H9130	H	0.649701	0.584798	0.897468
	H9131	H	0.712150	0.646551	0.899840
	Co9132	Co	0.738394	0.668519	0.627149
	Co9133	Co	0.675951	0.606012	0.624183
	Co9134	Co	0.613405	0.543813	0.876461
	Co9135	Co	0.675913	0.606083	0.874276
	C9136	C	0.634885	0.712999	0.922794
	C9137	C	0.690285	0.592420	0.921737
	C9138	C	0.664330	0.635654	0.577316
	C9139	C	0.729691	0.604929	0.579511
	C9140	C	0.664340	0.635692	0.923107
	C9141	C	0.729654	0.605347	0.924202
	C9142	C	0.634707	0.713057	0.574008
	C9143	C	0.690313	0.592327	0.577011
	C9144	C	0.662936	0.590040	0.671834
	C9145	C	0.725477	0.652164	0.674915
	C9146	C	0.624575	0.568106	0.828222
	C9147	C	0.687017	0.630485	0.827706
	C9148	C	0.624559	0.568068	0.673395
	C9149	C	0.687162	0.630069	0.672799
	C9150	C	0.662971	0.589846	0.826343
	C9151	C	0.725374	0.652519	0.829267
	C9152	C	0.638184	0.703911	0.999663
	C9153	C	0.694999	0.592594	0.499214
	C9154	C	0.660936	0.644511	1.000350
	C9155	C	0.725008	0.606082	0.501459
	C9156	C	0.658441	0.587820	0.749089
	C9157	C	0.720933	0.650211	0.751812
	C9158	C	0.628596	0.573220	0.750637
	C9159	C	0.691089	0.635331	0.750472
	C9160	C	0.643908	0.688791	0.999820
	C9161	C	0.702605	0.595928	0.500032
	C9162	C	0.655145	0.659491	1.000387
	C9163	C	0.717288	0.603957	0.500781
	C9164	C	0.650781	0.585082	0.749282
	C9165	C	0.713256	0.647435	0.751397
	C9166	C	0.635930	0.578634	0.750204
	C9167	C	0.698418	0.640934	0.750777
	C9168	C	0.646710	0.681111	1.036378
	C9169	C	0.706198	0.598863	1.083762
	C9170	C	0.652092	0.666886	0.489116
	C9171	C	0.713554	0.601747	0.416927
	C9172	C	0.652169	0.666873	1.036615
	C9173	C	0.713312	0.602715	1.083950
	C9174	C	0.646593	0.681085	0.488336
	C9175	C	0.706422	0.597975	0.416692
	C9176	C	0.646871	0.584065	0.666853
	C9177	C	0.709364	0.646622	0.668910
	C9178	C	0.639762	0.580366	0.832534
	C9179	C	0.702242	0.642461	0.833660
	C9180	C	0.639656	0.580907	0.667429
	C9181	C	0.702173	0.643444	0.668222
	C9182	C	0.646974	0.583546	0.831933
	C9183	C	0.709428	0.645705	0.833835
	N9184	N	0.629943	0.726345	0.951006
	N9185	N	0.683322	0.592958	0.949880
	N9186	N	0.669457	0.622826	0.547760
	N9187	N	0.736641	0.602530	0.550983
	N9188	N	0.669458	0.622781	0.951753
	N9189	N	0.736606	0.602865	0.953518
	N9190	N	0.629868	0.726554	0.545094
	N9191	N	0.683350	0.593061	0.547855
	N9192	N	0.669569	0.593300	0.700621
	N9193	N	0.732092	0.655647	0.704027
	N9194	N	0.618849	0.559941	0.799253
	N9195	N	0.681274	0.622365	0.797989
	N9196	N	0.618817	0.559982	0.702865
	N9197	N	0.681351	0.622147	0.701496
	N9198	N	0.669591	0.593209	0.797647
	N9199	N	0.732022	0.655829	0.800997
	H9200	H	0.647387	0.913280	0.348812
	H9201	H	0.697977	0.772800	0.352240
	H9202	H	0.675046	0.840632	0.150641
	H9203	H	0.725959	0.700596	0.153872
	H9204	H	0.675126	0.840583	0.351597
	H9205	H	0.726027	0.700686	0.350087
	H9206	H	0.647366	0.913078	0.151256
	H9207	H	0.698348	0.773471	0.151290
	H9208	H	0.672905	0.787659	0.103335
	H9209	H	0.735194	0.851005	0.101227
	H9210	H	0.637941	0.763113	0.395647
	H9211	H	0.700620	0.824580	0.399140
	H9212	H	0.638055	0.762476	0.100989
	H9213	H	0.700357	0.825911	0.103426
	H9214	H	0.672657	0.788601	0.398645
	H9215	H	0.735333	0.850403	0.396857
	H9216	H	0.656113	0.888558	0.382395
	H9217	H	0.706867	0.748711	0.554428
	H9218	H	0.666176	0.864532	0.076538
	H9219	H	0.716725	0.723735	0.093392
	H9220	H	0.665742	0.863306	0.382793
	H9221	H	0.716528	0.723566	0.553802
	H9222	H	0.656555	0.889771	0.076871
	H9223	H	0.707081	0.748867	0.093585
	H9224	H	0.661696	0.778781	0.253414
	H9225	H	0.723968	0.842783	0.278670
	H9226	H	0.649039	0.772108	0.245386
	H9227	H	0.711798	0.833088	0.220498
	H9228	H	0.649338	0.770460	0.253699
	H9229	H	0.711603	0.834264	0.278585
	H9230	H	0.661443	0.780336	0.246624
	H9231	H	0.724155	0.841500	0.220061
	Co9232	Co	0.749154	0.869236	0.123962
	Co9233	Co	0.686621	0.806821	0.126296
	Co9234	Co	0.624119	0.744432	0.373369
	Co9235	Co	0.686634	0.806704	0.377000
	C9236	C	0.646454	0.915430	0.422618
	C9237	C	0.697197	0.775397	0.425076
	C9238	C	0.675952	0.838068	0.077816
	C9239	C	0.726914	0.698196	0.079511
	C9240	C	0.676015	0.837943	0.424441
	C9241	C	0.726929	0.698325	0.424280
	C9242	C	0.646494	0.915506	0.077408
	C9243	C	0.697391	0.775696	0.078689
	C9244	C	0.674007	0.788955	0.175253
	C9245	C	0.736422	0.851887	0.173396
	C9246	C	0.636787	0.761883	0.324001
	C9247	C	0.699389	0.823761	0.326995
	C9248	C	0.636859	0.761573	0.173027
	C9249	C	0.699259	0.824449	0.175618
	C9250	C	0.673880	0.789446	0.326920
	C9251	C	0.736480	0.851607	0.324667
	C9252	C	0.649885	0.906439	0.499754
	C9253	C	0.700682	0.766433	0.002352
	C9254	C	0.672618	0.846987	0.500591
	C9255	C	0.723485	0.707046	0.001975
	C9256	C	0.669753	0.785514	0.250798
	C9257	C	0.732257	0.848010	0.249088
	C9258	C	0.641009	0.765412	0.248653
	C9259	C	0.703534	0.827759	0.250959
	C9260	C	0.655688	0.891513	0.499709
	C9261	C	0.706418	0.751278	0.002362
	C9262	C	0.666901	0.862149	0.500316
	C9263	C	0.717675	0.722011	0.001588
	C9264	C	0.662491	0.780198	0.250186
	C9265	C	0.724991	0.842738	0.249346
	C9266	C	0.648285	0.770635	0.249292
	C9267	C	0.710781	0.833109	0.250118
	C9268	C	0.658387	0.883496	0.434177
	C9269	C	0.709089	0.743481	0.530647
	C9270	C	0.664074	0.869965	0.043338
	C9271	C	0.714699	0.729324	0.052992
	C9272	C	0.663835	0.869189	0.434514
	C9273	C	0.714554	0.729238	0.530846
	C9274	C	0.658617	0.884205	0.043314
	C9275	C	0.709239	0.743543	0.053552
	C9276	C	0.658941	0.777301	0.251983
	C9277	C	0.721315	0.840634	0.265940
	C9278	C	0.651831	0.773496	0.247519
	C9279	C	0.714455	0.835207	0.233286
	C9280	C	0.651983	0.772657	0.252009
	C9281	C	0.714343	0.835897	0.266320
	C9282	C	0.658795	0.778212	0.247917
	C9283	C	0.721418	0.839965	0.233023
	N9284	N	0.641367	0.928336	0.452118
	N9285	N	0.692361	0.788863	0.454420
	N9286	N	0.680849	0.824627	0.049114
	N9287	N	0.731979	0.685170	0.050490
	N9288	N	0.680927	0.824585	0.453818
	N9289	N	0.732011	0.685405	0.453864
	N9290	N	0.641404	0.928444	0.048128
	N9291	N	0.692464	0.789054	0.049553
	N9292	N	0.680178	0.794711	0.204273
	N9293	N	0.742640	0.857451	0.202168
	N9294	N	0.630602	0.756191	0.295190
	N9295	N	0.693158	0.818356	0.298327
	N9296	N	0.630648	0.756021	0.201522
	N9297	N	0.693091	0.818728	0.204476
	N9298	N	0.680110	0.794980	0.298452
	N9299	N	0.742675	0.857237	0.296090
	H9300	H	0.647346	0.913082	0.849442
	H9301	H	0.698153	0.772844	0.852522
	H9302	H	0.674936	0.840348	0.650024
	H9303	H	0.726023	0.700753	0.652369
	H9304	H	0.675092	0.840288	0.851766
	H9305	H	0.726029	0.700519	0.851057
	H9306	H	0.647277	0.912744	0.650873
	H9307	H	0.698319	0.773216	0.651370
	H9308	H	0.672742	0.788890	0.604866
	H9309	H	0.735174	0.850996	0.602546
	H9310	H	0.637993	0.762838	0.897243
	H9311	H	0.700629	0.825083	0.899024
	H9312	H	0.638176	0.762426	0.602560
	H9313	H	0.700510	0.825632	0.604282
	H9314	H	0.672861	0.788097	0.898650
	H9315	H	0.735404	0.850389	0.897027
	H9316	H	0.656488	0.889515	0.924474
	H9317	H	0.707366	0.749561	0.910698
	H9318	H	0.666467	0.865266	0.617280
	H9319	H	0.717109	0.724491	0.447574
	H9320	H	0.666115	0.864335	0.924741
	H9321	H	0.716989	0.724369	0.910435
	H9322	H	0.656824	0.890526	0.616087
	H9323	H	0.707463	0.749591	0.447497
	H9324	H	0.661452	0.780621	0.702582
	H9325	H	0.723796	0.843768	0.747936
	H9326	H	0.649382	0.770814	0.799672
	H9327	H	0.712036	0.832337	0.754073
	H9328	H	0.649174	0.771878	0.702266
	H9329	H	0.711418	0.835447	0.749743
	H9330	H	0.661725	0.779429	0.800464
	H9331	H	0.724395	0.840728	0.752428
	Co9332	Co	0.749187	0.869238	0.624016
	Co9333	Co	0.686720	0.806865	0.626346
	Co9334	Co	0.624172	0.744125	0.873563
	Co9335	Co	0.686681	0.806794	0.877127
	C9336	C	0.646482	0.915512	0.923094
	C9337	C	0.697293	0.775414	0.925717
	C9338	C	0.675933	0.837837	0.577418
	C9339	C	0.726920	0.698322	0.578837
	C9340	C	0.675959	0.837898	0.924768
	C9341	C	0.726946	0.698151	0.924993
	C9342	C	0.646409	0.915176	0.577060
	C9343	C	0.697363	0.775617	0.577720
	C9344	C	0.673974	0.789710	0.676246
	C9345	C	0.736449	0.851948	0.674246
	C9346	C	0.636873	0.761697	0.825276
	C9347	C	0.699387	0.824215	0.827559
	C9348	C	0.636973	0.761490	0.674173
	C9349	C	0.699333	0.824495	0.676023
	C9350	C	0.674035	0.789281	0.827249
	C9351	C	0.736559	0.851668	0.825144
	C9352	C	0.649951	0.906714	1.000154
	C9353	C	0.700634	0.766364	0.501156
	C9354	C	0.672630	0.847119	1.000979
	C9355	C	0.723457	0.707135	0.501448
	C9356	C	0.669811	0.785824	0.751787
	C9357	C	0.732307	0.848088	0.749996
	C9358	C	0.641103	0.765374	0.749907
	C9359	C	0.703525	0.828146	0.751685
	C9360	C	0.655710	0.891670	1.000514
	C9361	C	0.706366	0.751222	0.500923
	C9362	C	0.666931	0.862314	1.000884
	C9363	C	0.717621	0.721959	0.501067
	C9364	C	0.662540	0.780605	0.751409
	C9365	C	0.725042	0.842830	0.750488
	C9366	C	0.648340	0.770772	0.750724
	C9367	C	0.710798	0.833303	0.751481
	C9368	C	0.658591	0.884070	0.958047
	C9369	C	0.709384	0.743924	0.950716
	C9370	C	0.664231	0.870251	0.565775
	C9371	C	0.714880	0.729741	0.470987
	C9372	C	0.664044	0.869810	0.958299
	C9373	C	0.714847	0.729701	0.950432
	C9374	C	0.658774	0.884552	0.565466
	C9375	C	0.709410	0.743955	0.470900
	C9376	C	0.658840	0.778454	0.723996
	C9377	C	0.721235	0.841310	0.749632
	C9378	C	0.652030	0.772976	0.778594
	C9379	C	0.714605	0.834855	0.752471
	C9380	C	0.651903	0.773583	0.723621
	C9381	C	0.714264	0.836567	0.750092
	C9382	C	0.658979	0.777829	0.778906
	C9383	C	0.721587	0.839533	0.751922
	N9384	N	0.641392	0.928435	0.952560
	N9385	N	0.692397	0.788871	0.954500
	N9386	N	0.680886	0.824558	0.549006
	N9387	N	0.731994	0.685352	0.549647
	N9388	N	0.680865	0.824535	0.954169
	N9389	N	0.732006	0.685165	0.954602
	N9390	N	0.641357	0.928188	0.547597
	N9391	N	0.692462	0.789010	0.549069
	N9392	N	0.680193	0.795157	0.704526
	N9393	N	0.742667	0.857527	0.702327
	N9394	N	0.630680	0.756027	0.796166
	N9395	N	0.693165	0.818654	0.799063
	N9396	N	0.630745	0.755921	0.702250
	N9397	N	0.693139	0.818772	0.704891
	N9398	N	0.680230	0.794954	0.798633
	N9399	N	0.742733	0.857361	0.796208
	H9400	H	0.644894	1.007964	0.347293
	H9401	H	0.709917	0.975277	0.347617
	H9402	H	0.681765	1.021682	0.151482
	H9403	H	0.737670	0.903231	0.147490
	H9404	H	0.681764	1.021678	0.346805
	H9405	H	0.737578	0.902515	0.349443
	H9406	H	0.644932	1.007934	0.151930
	H9407	H	0.709833	0.975056	0.150320
	H9408	H	0.685301	0.981237	0.097249
	H9409	H	0.747714	1.044301	0.097517
	H9410	H	0.649166	0.961758	0.400274
	H9411	H	0.711653	1.024117	0.400408
	H9412	H	0.649097	0.961763	0.098152
	H9413	H	0.711651	1.024055	0.098039
	H9414	H	0.685286	0.981425	0.400667
	H9415	H	0.747707	1.044096	0.401386
	H9416	H	0.657292	1.009390	0.348920
	H9417	H	0.718675	0.950933	0.462422
	H9418	H	0.669653	1.017199	0.149890
	H9419	H	0.728838	0.927000	0.116134
	H9420	H	0.669773	1.016048	0.348639
	H9421	H	0.728344	0.925794	0.461739
	H9422	H	0.657169	1.010918	0.150096
	H9423	H	0.719159	0.952061	0.116014
	H9424	H	0.673855	0.971859	0.100848
	H9425	H	0.736333	1.034370	0.100612
	H9426	H	0.661310	0.965506	0.397000
	H9427	H	0.723668	1.028786	0.397509
	H9428	H	0.661210	0.966240	0.100571
	H9429	H	0.723704	1.028606	0.100770
	H9430	H	0.673914	0.971384	0.397026
	H9431	H	0.736277	1.034484	0.397536
	Co9432	Co	0.759885	1.070281	0.125016
	Co9433	Co	0.697417	1.007365	0.123891
	Co9434	Co	0.634885	0.945208	0.375108
	Co9435	Co	0.697430	1.007385	0.374590
	C9436	C	0.643663	1.008853	0.422003
	C9437	C	0.708971	0.977611	0.421702
	C9438	C	0.683079	1.021210	0.076898
	C9439	C	0.738582	0.900592	0.074777
	C9440	C	0.683089	1.021254	0.421547
	C9441	C	0.738536	0.900257	0.422550
	C9442	C	0.643619	1.008825	0.077432
	C9443	C	0.708943	0.977569	0.076215
	C9444	C	0.686286	0.983050	0.171384
	C9445	C	0.748728	1.046008	0.171876
	C9446	C	0.647918	0.961119	0.326661
	C9447	C	0.710435	1.023458	0.326161
	C9448	C	0.647896	0.961096	0.172030
	C9449	C	0.710431	1.023412	0.171824
	C9450	C	0.686270	0.983151	0.326126
	C9451	C	0.748735	1.045853	0.327023
	C9452	C	0.648357	1.007727	0.499475
	C9453	C	0.712430	0.968874	-0.001056
	C9454	C	0.678419	1.021063	0.499151
	C9455	C	0.735217	0.909592	-0.001939
	C9456	C	0.682277	0.977923	0.248733
	C9457	C	0.744713	1.040870	0.249265
	C9458	C	0.652409	0.963265	0.249161
	C9459	C	0.714915	1.025609	0.248844
	C9460	C	0.656081	1.009760	0.499322
	C9461	C	0.718212	0.953885	-0.001461
	C9462	C	0.670785	1.017777	0.498953
	C9463	C	0.729496	0.924729	-0.002145
	C9464	C	0.674946	0.972399	0.248942
	C9465	C	0.737396	1.035320	0.249034
	C9466	C	0.660099	0.965892	0.248971
	C9467	C	0.722558	1.028593	0.248885
	C9468	C	0.659933	1.011233	0.415551
	C9469	C	0.720947	0.945916	0.478412
	C9470	C	0.667017	1.015665	0.083195
	C9471	C	0.726686	0.932313	0.064257
	C9472	C	0.667060	1.015100	0.415542
	C9473	C	0.726443	0.931754	0.478086
	C9474	C	0.659870	1.011984	0.083490
	C9475	C	0.721207	0.946494	0.064308
	C9476	C	0.671129	0.970604	0.166179
	C9477	C	0.733622	1.033241	0.166443
	C9478	C	0.663990	0.967006	0.331546
	C9479	C	0.726396	1.030011	0.331639
	C9480	C	0.663926	0.967429	0.166186
	C9481	C	0.726426	1.029986	0.166308
	C9482	C	0.671192	0.970140	0.331552
	C9483	C	0.733586	1.033284	0.331583
	N9484	N	0.636721	1.011466	0.450792
	N9485	N	0.703871	0.990515	0.450987
	N9486	N	0.690048	1.020550	0.048216
	N9487	N	0.743460	0.887117	0.046287
	N9488	N	0.690034	1.020505	0.450269
	N9489	N	0.743433	0.886889	0.451598
	N9490	N	0.636699	1.011502	0.048228
	N9491	N	0.703857	0.990527	0.046925
	N9492	N	0.692049	0.991138	0.200733
	N9493	N	0.754507	1.053984	0.201278
	N9494	N	0.641267	0.957869	0.298131
	N9495	N	0.703809	1.020082	0.297636
	N9496	N	0.641244	0.957904	0.200961
	N9497	N	0.703827	1.019983	0.200785
	N9498	N	0.692025	0.991219	0.297056
	N9499	N	0.754499	1.053944	0.297830
	H9500	H	0.644996	1.008509	0.847584
	H9501	H	0.709922	0.975391	0.848248
	H9502	H	0.681733	1.021524	0.651902
	H9503	H	0.737863	0.903366	0.648563
	H9504	H	0.681755	1.021412	0.846693
	H9505	H	0.737614	0.902845	0.849021
	H9506	H	0.644913	1.008011	0.651977
	H9507	H	0.709781	0.974952	0.649834
	H9508	H	0.685242	0.981273	0.598190
	H9509	H	0.747730	1.044313	0.597852
	H9510	H	0.649070	0.962005	0.901187
	H9511	H	0.711706	1.023927	0.899686
	H9512	H	0.649118	0.961659	0.598185
	H9513	H	0.711682	1.024001	0.597878
	H9514	H	0.685279	0.981355	0.901056
	H9515	H	0.747773	1.044139	0.901839
	H9516	H	0.657257	1.009769	0.849561
	H9517	H	0.718904	0.951691	0.880216
	H9518	H	0.669652	1.017450	0.649619
	H9519	H	0.729135	0.927655	0.535665
	H9520	H	0.669738	1.016171	0.849303
	H9521	H	0.728565	0.926723	0.879789
	H9522	H	0.657168	1.010956	0.649793
	H9523	H	0.719451	0.952695	0.535828
	H9524	H	0.673731	0.972379	0.601669
	H9525	H	0.736368	1.034647	0.602388
	H9526	H	0.661251	0.965532	0.896757
	H9527	H	0.723772	1.028435	0.896966
	H9528	H	0.661091	0.966869	0.601466
	H9529	H	0.723808	1.028501	0.601866
	H9530	H	0.673874	0.971247	0.897031
	H9531	H	0.736393	1.034412	0.896817
	Co9532	Co	0.759899	1.070177	0.624392
	Co9533	Co	0.697413	1.007312	0.624037
	Co9534	Co	0.634897	0.945006	0.875110
	Co9535	Co	0.697458	1.007318	0.874221
	C9536	C	0.643645	1.009225	0.922165
	C9537	C	0.708987	0.977694	0.921738
	C9538	C	0.683064	1.021199	0.577119
	C9539	C	0.738671	0.900676	0.575617
	C9540	C	0.683076	1.021018	0.921440
	C9541	C	0.738545	0.900389	0.921832
	C9542	C	0.643662	1.008845	0.577181
	C9543	C	0.708917	0.977455	0.576077
	C9544	C	0.686262	0.983040	0.672252
	C9545	C	0.748767	1.046015	0.672351
	C9546	C	0.647871	0.961278	0.826740
	C9547	C	0.710481	1.023344	0.826070
	C9548	C	0.647901	0.961134	0.672215
	C9549	C	0.710464	1.023366	0.671743
	C9550	C	0.686266	0.983092	0.826982
	C9551	C	0.748782	1.045957	0.827516
	C9552	C	0.648341	1.007906	0.999877
	C9553	C	0.712423	0.968757	0.498890
	C9554	C	0.678404	1.020911	0.999247
	C9555	C	0.735263	0.909596	0.499065
	C9556	C	0.682242	0.978027	0.749526
	C9557	C	0.744755	1.040894	0.750032
	C9558	C	0.652342	0.963436	0.749505
	C9559	C	0.714975	1.025587	0.749058
	C9560	C	0.656092	1.009835	0.999871
	C9561	C	0.718263	0.953903	0.498849
	C9562	C	0.670806	1.017649	0.999455
	C9563	C	0.729547	0.924741	0.498822
	C9564	C	0.674877	0.972594	0.749334
	C9565	C	0.737446	1.035305	0.749895
	C9566	C	0.660009	0.966256	0.749439
	C9567	C	0.722620	1.028468	0.749380
	C9568	C	0.659920	1.011396	0.916261
	C9569	C	0.721043	0.946315	0.932080
	C9570	C	0.667000	1.015876	0.582834
	C9571	C	0.726867	0.932701	0.519518
	C9572	C	0.667066	1.015162	0.916110
	C9573	C	0.726532	0.932145	0.931796
	C9574	C	0.659858	1.012101	0.583022
	C9575	C	0.721389	0.946901	0.519515
	C9576	C	0.671039	0.971012	0.666966
	C9577	C	0.733675	1.033253	0.667449
	C9578	C	0.663932	0.967174	0.831690
	C9579	C	0.726461	1.029833	0.831631
	C9580	C	0.663841	0.967855	0.666929
	C9581	C	0.726490	1.029900	0.667229
	C9582	C	0.671133	0.970282	0.831599
	C9583	C	0.733647	1.033242	0.831818
	N9584	N	0.636721	1.011664	0.950739
	N9585	N	0.703883	0.990550	0.951185
	N9586	N	0.690019	1.020481	0.548638
	N9587	N	0.743525	0.887194	0.546599
	N9588	N	0.690042	1.020413	0.949923
	N9589	N	0.743439	0.887012	0.951242
	N9590	N	0.636708	1.011474	0.548563
	N9591	N	0.703822	0.990407	0.546761
	N9592	N	0.692035	0.991052	0.701394
	N9593	N	0.754521	1.054046	0.701715
	N9594	N	0.641239	0.957800	0.798200
	N9595	N	0.703862	1.019949	0.797378
	N9596	N	0.641266	0.957722	0.701119
	N9597	N	0.703852	1.019953	0.700454
	N9598	N	0.692026	0.991138	0.797588
	N9599	N	0.754535	1.054008	0.798174
	H9600	H	0.769915	0.132730	0.346985
	H9601	H	0.835021	0.100606	0.348119
	H9602	H	0.806781	0.146784	0.150558
	H9603	H	0.862598	0.027616	0.148115
	H9604	H	0.806695	0.146353	0.346467
	H9605	H	0.862813	0.028371	0.349255
	H9606	H	0.770004	0.133199	0.152149
	H9607	H	0.834764	0.100030	0.149345
	H9608	H	0.810179	0.106740	0.096253
	H9609	H	0.872781	0.168892	0.098885
	H9610	H	0.774202	0.086351	0.400316
	H9611	H	0.836543	0.149085	0.399535
	H9612	H	0.773960	0.087286	0.098714
	H9613	H	0.836632	0.148890	0.097921
	H9614	H	0.810427	0.105874	0.400401
	H9615	H	0.872632	0.169289	0.402324
	H9616	H	0.782225	0.135046	0.649741
	H9617	H	0.844035	0.076809	0.433168
	H9618	H	0.794817	0.141295	0.148884
	H9619	H	0.853798	0.051835	0.036716
	H9620	H	0.794737	0.141429	0.649508
	H9621	H	0.853720	0.051768	0.433248
	H9622	H	0.782341	0.134930	0.149312
	H9623	H	0.844155	0.076973	0.036449
	H9624	H	0.798813	0.096296	0.100677
	H9625	H	0.861272	0.159177	0.397835
	H9626	H	0.786221	0.091028	0.397427
	H9627	H	0.848687	0.153792	0.100890
	H9628	H	0.786206	0.090741	0.100824
	H9629	H	0.848689	0.153229	0.397338
	H9630	H	0.798841	0.096789	0.397027
	H9631	H	0.861308	0.159613	0.101382
	Co9632	Co	0.884876	0.194992	0.125369
	Co9633	Co	0.822438	0.132297	0.123242
	Co9634	Co	0.759894	0.070098	0.374864
	Co9635	Co	0.822371	0.132320	0.373685
	C9636	C	0.768620	0.133826	0.421719
	C9637	C	0.834027	0.102869	0.421547
	C9638	C	0.808129	0.146320	0.076301
	C9639	C	0.863509	0.025258	0.075498
	C9640	C	0.808041	0.145963	0.420875
	C9641	C	0.863672	0.025755	0.422108
	C9642	C	0.768695	0.133983	0.077291
	C9643	C	0.833916	0.102507	0.076127
	C9644	C	0.811187	0.108249	0.171064
	C9645	C	0.873739	0.170638	0.173160
	C9646	C	0.772927	0.085903	0.326869
	C9647	C	0.835362	0.148471	0.325725
	C9648	C	0.772816	0.086438	0.172610
	C9649	C	0.835391	0.148448	0.171609
	C9650	C	0.811335	0.107734	0.325873
	C9651	C	0.873682	0.170812	0.327768
	C9652	C	0.773326	0.132633	0.499662
	C9653	C	0.837425	0.093775	-0.000823
	C9654	C	0.803379	0.145957	0.498884
	C9655	C	0.860217	0.034393	-0.000939
	C9656	C	0.807233	0.102877	0.248675
	C9657	C	0.869696	0.165649	0.250270
	C9658	C	0.777364	0.088201	0.249603
	C9659	C	0.839878	0.150561	0.248774
	C9660	C	0.781064	0.134668	0.499525
	C9661	C	0.843245	0.078876	-0.001004
	C9662	C	0.795778	0.142555	0.499188
	C9663	C	0.854492	0.049531	-0.001100
	C9664	C	0.799900	0.097388	0.249136
	C9665	C	0.862370	0.160070	0.249779
	C9666	C	0.785031	0.090860	0.249303
	C9667	C	0.847538	0.153433	0.249067
	C9668	C	0.784892	0.136492	0.582983
	C9669	C	0.846171	0.071480	0.461633
	C9670	C	0.792119	0.140191	0.082217
	C9671	C	0.851663	0.057209	0.020072
	C9672	C	0.792042	0.140238	0.582755
	C9673	C	0.851654	0.057269	0.461816
	C9674	C	0.784977	0.136369	0.082517
	C9675	C	0.846201	0.071423	0.020299
	C9676	C	0.796098	0.095303	0.166566
	C9677	C	0.858570	0.157913	0.332208
	C9678	C	0.788916	0.092259	0.331880
	C9679	C	0.851398	0.154966	0.166652
	C9680	C	0.788898	0.092112	0.166559
	C9681	C	0.851380	0.154703	0.331956
	C9682	C	0.796124	0.095417	0.331626
	C9683	C	0.858583	0.158224	0.166899
	N9684	N	0.761685	0.136545	0.450689
	N9685	N	0.828892	0.115673	0.450685
	N9686	N	0.815080	0.145577	0.047404
	N9687	N	0.868440	0.011907	0.046535
	N9688	N	0.814998	0.145309	0.449324
	N9689	N	0.868518	0.012241	0.450955
	N9690	N	0.761769	0.136606	0.048406
	N9691	N	0.828847	0.115464	0.046388
	N9692	N	0.816955	0.116219	0.200180
	N9693	N	0.879479	0.178788	0.202390
	N9694	N	0.766265	0.082816	0.298729
	N9695	N	0.828733	0.145123	0.297068
	N9696	N	0.766192	0.083112	0.201526
	N9697	N	0.828753	0.145094	0.200194
	N9698	N	0.817055	0.115879	0.296684
	N9699	N	0.879430	0.178942	0.298879
	H9700	H	0.769997	0.132966	0.847342
	H9701	H	0.834922	0.100295	0.848480
	H9702	H	0.806741	0.146739	0.651419
	H9703	H	0.862563	0.027762	0.647837
	H9704	H	0.806758	0.146468	0.845911
	H9705	H	0.862807	0.028029	0.850585
	H9706	H	0.769927	0.133056	0.651643
	H9707	H	0.834803	0.100121	0.649685
	H9708	H	0.810284	0.106507	0.596997
	H9709	H	0.872869	0.168717	0.598808
	H9710	H	0.774130	0.086859	0.901219
	H9711	H	0.836633	0.149278	0.899883
	H9712	H	0.774136	0.086721	0.598232
	H9713	H	0.836796	0.148754	0.598418
	H9714	H	0.810267	0.106745	0.900413
	H9715	H	0.872684	0.169510	0.902486
	H9716	H	0.782255	0.135301	0.848432
	H9717	H	0.843949	0.076624	0.961625
	H9718	H	0.794665	0.141522	0.348921
	H9719	H	0.853789	0.052145	0.564585
	H9720	H	0.794767	0.141596	0.848173
	H9721	H	0.853630	0.051411	0.961664
	H9722	H	0.782172	0.135095	0.349275
	H9723	H	0.844137	0.077227	0.564005
	H9724	H	0.798850	0.097081	0.896646
	H9725	H	0.861375	0.159597	0.603153
	H9726	H	0.786225	0.090762	0.601269
	H9727	H	0.848756	0.153239	0.897212
	H9728	H	0.786255	0.091202	0.897141
	H9729	H	0.848822	0.153717	0.602682
	H9730	H	0.798822	0.096705	0.600692
	H9731	H	0.861380	0.158831	0.897812
	Co9732	Co	0.884947	0.195023	0.625215
	Co9733	Co	0.822428	0.132434	0.623212
	Co9734	Co	0.759889	0.070321	0.874994
	Co9735	Co	0.822504	0.132380	0.873681
	C9736	C	0.768692	0.133815	0.921711
	C9737	C	0.834006	0.102621	0.922035
	C9738	C	0.808067	0.146240	0.576390
	C9739	C	0.863529	0.025456	0.574922
	C9740	C	0.808116	0.146134	0.920594
	C9741	C	0.863628	0.025447	0.923084
	C9742	C	0.768626	0.133931	0.577343
	C9743	C	0.833912	0.102615	0.575719
	C9744	C	0.811276	0.108296	0.670981
	C9745	C	0.873805	0.170715	0.673366
	C9746	C	0.772911	0.086216	0.827001
	C9747	C	0.835450	0.148494	0.826094
	C9748	C	0.772908	0.086149	0.672397
	C9749	C	0.835514	0.148267	0.671852
	C9750	C	0.811273	0.108305	0.826052
	C9751	C	0.873734	0.171018	0.828216
	C9752	C	0.773419	0.132709	0.999511
	C9753	C	0.837464	0.093939	0.498700
	C9754	C	0.803438	0.145984	0.998463
	C9755	C	0.860266	0.034779	0.498618
	C9756	C	0.807246	0.103269	0.748536
	C9757	C	0.869758	0.165759	0.750846
	C9758	C	0.777415	0.088267	0.749660
	C9759	C	0.839973	0.150525	0.749305
	C9760	C	0.781139	0.134667	0.999045
	C9761	C	0.843291	0.079068	0.498440
	C9762	C	0.795841	0.142584	0.998613
	C9763	C	0.854565	0.049915	0.498598
	C9764	C	0.799913	0.097725	0.748623
	C9765	C	0.862456	0.160190	0.750690
	C9766	C	0.785092	0.091008	0.749387
	C9767	C	0.847623	0.153406	0.749843
	C9768	C	0.784929	0.136575	0.915244
	C9769	C	0.846091	0.071260	0.977895
	C9770	C	0.792010	0.140249	0.415728
	C9771	C	0.851692	0.057498	0.535364
	C9772	C	0.792077	0.140371	0.915014
	C9773	C	0.851565	0.057039	0.978072
	C9774	C	0.784860	0.136515	0.415834
	C9775	C	0.846206	0.071700	0.535403
	C9776	C	0.796140	0.095753	0.831288
	C9777	C	0.858689	0.158227	0.668421
	C9778	C	0.788921	0.092294	0.666729
	C9779	C	0.851481	0.154624	0.832181
	C9780	C	0.788954	0.092449	0.831613
	C9781	C	0.851495	0.154991	0.667866
	C9782	C	0.796116	0.095547	0.666172
	C9783	C	0.858668	0.157911	0.832453
	N9784	N	0.761759	0.136532	0.950575
	N9785	N	0.828915	0.115554	0.950887
	N9786	N	0.815011	0.145414	0.547629
	N9787	N	0.868441	0.012094	0.545925
	N9788	N	0.815075	0.145448	0.949286
	N9789	N	0.868514	0.012021	0.951948
	N9790	N	0.761690	0.136599	0.548148
	N9791	N	0.828830	0.115543	0.546326
	N9792	N	0.817061	0.116256	0.700205
	N9793	N	0.879548	0.178861	0.702542
	N9794	N	0.766266	0.082950	0.798200
	N9795	N	0.828848	0.145078	0.797061
	N9796	N	0.766269	0.082916	0.701184
	N9797	N	0.828883	0.144976	0.700007
	N9798	N	0.817054	0.116293	0.796719
	N9799	N	0.879495	0.179064	0.798932
	H9800	H	0.764588	0.216982	0.347030
	H9801	H	0.832519	0.195744	0.347219
	H9802	H	0.801337	0.230172	0.150717
	H9803	H	0.869170	0.209002	0.152650
	H9804	H	0.801363	0.230443	0.346532
	H9805	H	0.869300	0.209491	0.348253
	H9806	H	0.764614	0.216560	0.150659
	H9807	H	0.832342	0.195137	0.150605
	H9808	H	0.803954	0.190125	0.096583
	H9809	H	0.866543	0.252325	0.098284
	H9810	H	0.767311	0.173145	0.401935
	H9811	H	0.829693	0.235798	0.400901
	H9812	H	0.767290	0.173278	0.096942
	H9813	H	0.829864	0.235267	0.096198
	H9814	H	0.803975	0.190299	0.401170
	H9815	H	0.866376	0.252915	0.403095
	H9816	H	0.776619	0.221621	0.649288
	H9817	H	0.844644	0.197889	0.649313
	H9818	H	0.789112	0.228005	0.148346
	H9819	H	0.857065	0.205054	0.150521
	H9820	H	0.789117	0.228078	0.649266
	H9821	H	0.857164	0.204337	0.649787
	H9822	H	0.776641	0.221511	0.148478
	H9823	H	0.844624	0.198360	0.149830
	H9824	H	0.792017	0.183752	0.098312
	H9825	H	0.854519	0.247121	0.099456
	H9826	H	0.779277	0.179439	0.399670
	H9827	H	0.841851	0.241213	0.399876
	H9828	H	0.779304	0.179062	0.098200
	H9829	H	0.841817	0.242357	0.098404
	H9830	H	0.791961	0.184375	0.399499
	H9831	H	0.854515	0.245954	0.400551
	Co9832	Co	0.879402	0.275358	0.125538
	Co9833	Co	0.816854	0.212827	0.122664
	Co9834	Co	0.754393	0.150469	0.374930
	Co9835	Co	0.816920	0.213016	0.374054
	C9836	C	0.763281	0.217311	0.421420
	C9837	C	0.831176	0.196506	0.421230
	C9838	C	0.802643	0.229499	0.076077
	C9839	C	0.870512	0.208762	0.078226
	C9840	C	0.802658	0.229586	0.421325
	C9841	C	0.870594	0.208884	0.423034
	C9842	C	0.763244	0.217142	0.076162
	C9843	C	0.831099	0.196231	0.076217
	C9844	C	0.805042	0.191570	0.171399
	C9845	C	0.867576	0.253916	0.172943
	C9846	C	0.766233	0.171835	0.327141
	C9847	C	0.828672	0.234445	0.325726
	C9848	C	0.766216	0.171887	0.171827
	C9849	C	0.828753	0.234121	0.170839
	C9850	C	0.805077	0.191517	0.326538
	C9851	C	0.867510	0.254091	0.328224
	C9852	C	0.767941	0.217264	0.499064
	C9853	C	0.835835	0.195229	-0.001250
	C9854	C	0.797986	0.230725	0.498995
	C9855	C	0.865881	0.208789	0.000121
	C9856	C	0.800765	0.187862	0.249004
	C9857	C	0.863255	0.250381	0.250451
	C9858	C	0.770523	0.175470	0.249374
	C9859	C	0.833038	0.237952	0.248475
	C9860	C	0.775570	0.220586	0.498975
	C9861	C	0.843585	0.197304	-0.000846
	C9862	C	0.790244	0.228664	0.498969
	C9863	C	0.858266	0.205394	-0.000262
	C9864	C	0.793160	0.184191	0.248991
	C9865	C	0.855654	0.246794	0.250167
	C9866	C	0.778121	0.178981	0.249065
	C9867	C	0.840618	0.241601	0.249137
	C9868	C	0.779329	0.222871	0.582457
	C9869	C	0.847364	0.199270	0.583045
	C9870	C	0.786435	0.226616	0.081539
	C9871	C	0.854452	0.203410	0.083577
	C9872	C	0.786437	0.226753	0.582590
	C9873	C	0.854499	0.203045	0.583200
	C9874	C	0.779300	0.222748	0.081559
	C9875	C	0.847320	0.199620	0.083102
	C9876	C	0.789284	0.182739	0.165238
	C9877	C	0.851774	0.245824	0.165966
	C9878	C	0.781988	0.180459	0.332799
	C9879	C	0.844505	0.242573	0.332958
	C9880	C	0.782005	0.180214	0.165314
	C9881	C	0.844497	0.243282	0.165730
	C9882	C	0.789257	0.183043	0.332765
	C9883	C	0.851771	0.245140	0.333647
	N9884	N	0.756319	0.218048	0.450272
	N9885	N	0.824224	0.199161	0.449882
	N9886	N	0.809591	0.226808	0.047108
	N9887	N	0.877495	0.208119	0.049720
	N9888	N	0.809620	0.227066	0.449772
	N9889	N	0.877552	0.208187	0.451427
	N9890	N	0.756300	0.217886	0.047521
	N9891	N	0.824173	0.198916	0.046865
	N9892	N	0.811288	0.197524	0.200249
	N9893	N	0.873811	0.259929	0.202207
	N9894	N	0.760015	0.165812	0.298208
	N9895	N	0.822485	0.228357	0.296825
	N9896	N	0.759987	0.165885	0.200825
	N9897	N	0.822536	0.228131	0.199484
	N9898	N	0.811297	0.197568	0.297300
	N9899	N	0.873742	0.260092	0.299400
	H9900	H	0.764586	0.216732	0.845911
	H9901	H	0.832525	0.195929	0.845914
	H9902	H	0.801388	0.230534	0.651048
	H9903	H	0.869297	0.209000	0.652753
	H9904	H	0.801378	0.230578	0.845943
	H9905	H	0.869243	0.209722	0.848056
	H9906	H	0.764603	0.216506	0.651597
	H9907	H	0.832444	0.195418	0.651093
	H9908	H	0.803983	0.190424	0.596236
	H9909	H	0.866585	0.252515	0.598471
	H9910	H	0.767424	0.173178	0.901789
	H9911	H	0.829739	0.235856	0.900693
	H9912	H	0.767380	0.173165	0.597107
	H9913	H	0.829830	0.235818	0.596829
	H9914	H	0.804157	0.189911	0.900580
	H9915	H	0.866361	0.253111	0.902024
	H9916	H	0.776609	0.221784	0.847675
	H9917	H	0.844815	0.197166	0.848631
	H9918	H	0.789062	0.228321	0.348451
	H9919	H	0.857310	0.203766	0.350133
	H9920	H	0.789075	0.228297	0.848021
	H9921	H	0.857309	0.203903	0.849365
	H9922	H	0.776608	0.221764	0.348762
	H9923	H	0.844809	0.197343	0.349601
	H9924	H	0.792099	0.184066	0.899592
	H9925	H	0.854570	0.246657	0.599793
	H9926	H	0.779343	0.179089	0.598679
	H9927	H	0.841855	0.241519	0.899495
	H9928	H	0.779380	0.179327	0.899586
	H9929	H	0.841843	0.242125	0.599154
	H9930	H	0.792061	0.183624	0.598362
	H9931	H	0.854530	0.246181	0.900110
	Co9932	Co	0.879441	0.275559	0.625047
	Co9933	Co	0.816864	0.213198	0.622801
	Co9934	Co	0.754468	0.150463	0.875175
	Co9935	Co	0.816944	0.213046	0.873586
	C9936	C	0.763227	0.217140	0.920620
	C9937	C	0.831163	0.196545	0.920934
	C9938	C	0.802673	0.229657	0.576499
	C9939	C	0.870590	0.208730	0.578106
	C9940	C	0.802662	0.229593	0.920442
	C9941	C	0.870561	0.209079	0.922730
	C9942	C	0.763297	0.217082	0.576773
	C9943	C	0.831136	0.196462	0.576590
	C9944	C	0.805098	0.191626	0.670732
	C9945	C	0.867644	0.254016	0.673134
	C9946	C	0.766294	0.171807	0.827204
	C9947	C	0.828723	0.234493	0.826332
	C9948	C	0.766296	0.171745	0.671691
	C9949	C	0.828745	0.234564	0.671374
	C9950	C	0.805190	0.191418	0.826052
	C9951	C	0.867534	0.254265	0.828029
	C9952	C	0.767924	0.217234	0.998337
	C9953	C	0.835840	0.195258	0.499088
	C9954	C	0.797951	0.230711	0.998204
	C9955	C	0.865923	0.208609	0.500352
	C9956	C	0.800837	0.187838	0.748566
	C9957	C	0.863296	0.250508	0.750326
	C9958	C	0.770607	0.175371	0.749333
	C9959	C	0.833053	0.238081	0.749031
	C9960	C	0.775534	0.220608	0.998187
	C9961	C	0.843599	0.197242	0.499413
	C9962	C	0.790232	0.228642	0.997982
	C9963	C	0.858320	0.205155	0.499941
	C9964	C	0.793244	0.184213	0.748885
	C9965	C	0.855710	0.246783	0.749851
	C9966	C	0.778201	0.179014	0.749081
	C9967	C	0.840655	0.241578	0.749259
	C9968	C	0.779267	0.223072	0.914607
	C9969	C	0.847439	0.198853	0.915526
	C9970	C	0.786426	0.226832	0.415395
	C9971	C	0.854600	0.202690	0.416568
	C9972	C	0.786404	0.226888	0.914478
	C9973	C	0.854564	0.202706	0.915973
	C9974	C	0.779309	0.222976	0.415428
	C9975	C	0.847458	0.198926	0.416209
	C9976	C	0.789377	0.182979	0.832683
	C9977	C	0.851831	0.245579	0.666216
	C9978	C	0.782072	0.180215	0.665363
	C9979	C	0.844556	0.242667	0.832861
	C9980	C	0.782099	0.180391	0.832766
	C9981	C	0.844558	0.243004	0.665936
	C9982	C	0.789352	0.182753	0.665385
	C9983	C	0.851830	0.245257	0.833153
	N9984	N	0.756295	0.217922	0.949351
	N9985	N	0.824227	0.199137	0.949314
	N9986	N	0.809620	0.227153	0.547596
	N9987	N	0.877550	0.208108	0.549656
	N9988	N	0.809609	0.226932	0.949389
	N9989	N	0.877525	0.208312	0.951671
	N9990	N	0.756338	0.217943	0.548200
	N9991	N	0.824197	0.199215	0.547358
	N9992	N	0.811313	0.197685	0.699497
	N9993	N	0.873832	0.260153	0.702429
	N9994	N	0.760042	0.165911	0.798271
	N9995	N	0.822483	0.228582	0.797123
	N9996	N	0.760061	0.165850	0.700975
	N9997	N	0.822501	0.228599	0.699813
	N9998	N	0.811376	0.197550	0.796795
	N9999	N	0.873747	0.260357	0.799514
	H10000	H	0.768264	0.390325	0.350657
	H10001	H	0.827103	0.279356	0.346469
	H10002	H	0.798529	0.324198	0.150091
	H10003	H	0.863819	0.292698	0.152584
	H10004	H	0.798504	0.324770	0.349144
	H10005	H	0.863900	0.292992	0.348246
	H10006	H	0.768404	0.390379	0.151374
	H10007	H	0.827053	0.278523	0.151278
	H10008	H	0.797196	0.276495	0.097618
	H10009	H	0.859766	0.338370	0.098470
	H10010	H	0.761006	0.256965	0.400003
	H10011	H	0.823391	0.319876	0.400749
	H10012	H	0.761003	0.256709	0.096130
	H10013	H	0.823633	0.319031	0.097164
	H10014	H	0.797104	0.276885	0.400086
	H10015	H	0.859659	0.339076	0.401838
	H10016	H	0.778417	0.369586	0.423691
	H10017	H	0.839034	0.284537	0.649848
	H10018	H	0.788637	0.345833	-0.063859
	H10019	H	0.851659	0.290103	-0.150628
	H10020	H	0.788858	0.346586	0.423597
	H10021	H	0.851541	0.291053	0.649876
	H10022	H	0.778124	0.368653	-0.062836
	H10023	H	0.839176	0.283574	-0.150793
	H10024	H	0.785026	0.272428	0.100401
	H10025	H	0.847567	0.334974	0.101264
	H10026	H	0.772411	0.266463	0.395817
	H10027	H	0.834974	0.328818	0.397931
	H10028	H	0.772442	0.266739	0.100400
	H10029	H	0.834935	0.329554	0.100417
	H10030	H	0.784963	0.272427	0.396426
	H10031	H	0.847598	0.334354	0.398195
	Co10032	Co	0.873844	0.355702	0.125549
	Co10033	Co	0.811390	0.293279	0.123511
	Co10034	Co	0.748888	0.230921	0.374303
	Co10035	Co	0.811370	0.293604	0.374043
	C10036	C	0.767348	0.392703	0.424467
	C10037	C	0.825760	0.279824	0.421179
	C10038	C	0.799451	0.322020	0.076075
	C10039	C	0.865134	0.291995	0.078054
	C10040	C	0.799464	0.322241	0.422809
	C10041	C	0.865162	0.292108	0.422940
	C10042	C	0.767359	0.392716	0.077792
	C10043	C	0.825753	0.279307	0.076519
	C10044	C	0.798383	0.277158	0.171726
	C10045	C	0.860910	0.339286	0.172843
	C10046	C	0.759981	0.255231	0.325507
	C10047	C	0.822489	0.317830	0.326014
	C10048	C	0.760011	0.255073	0.170808
	C10049	C	0.822617	0.317418	0.171161
	C10050	C	0.798323	0.277433	0.326368
	C10051	C	0.860864	0.339627	0.327739
	C10052	C	0.771072	0.384503	0.501043
	C10053	C	0.830388	0.279760	-0.000969
	C10054	C	0.795728	0.330288	0.500197
	C10055	C	0.860474	0.293179	0.000249
	C10056	C	0.793851	0.275129	0.248781
	C10057	C	0.856402	0.337312	0.250213
	C10058	C	0.764014	0.260247	0.247971
	C10059	C	0.826552	0.322708	0.248855
	C10060	C	0.777316	0.370748	0.500820
	C10061	C	0.838012	0.283112	-0.000704
	C10062	C	0.789502	0.344063	0.500419
	C10063	C	0.852717	0.291124	-0.000302
	C10064	C	0.786201	0.272325	0.248418
	C10065	C	0.848720	0.334635	0.249774
	C10066	C	0.771329	0.265731	0.247950
	C10067	C	0.833875	0.328245	0.249200
	C10068	C	0.780573	0.364255	0.457617
	C10069	C	0.841741	0.285694	0.583170
	C10070	C	0.786330	0.350851	-0.035587
	C10071	C	0.848959	0.288917	-0.083977
	C10072	C	0.786500	0.351257	0.457315
	C10073	C	0.848867	0.289501	0.583606
	C10074	C	0.780373	0.363771	-0.035071
	C10075	C	0.841843	0.285069	-0.084136
	C10076	C	0.782345	0.271073	0.166025
	C10077	C	0.844850	0.333587	0.166821
	C10078	C	0.775113	0.267767	0.330388
	C10079	C	0.837675	0.330071	0.332216
	C10080	C	0.775141	0.267838	0.165780
	C10081	C	0.837650	0.330503	0.166480
	C10082	C	0.782320	0.270957	0.330662
	C10083	C	0.844874	0.333135	0.332436
	N10084	N	0.761964	0.404806	0.453865
	N10085	N	0.818793	0.280541	0.449648
	N10086	N	0.804800	0.309862	0.046575
	N10087	N	0.872096	0.289424	0.049775
	N10088	N	0.804838	0.310071	0.451759
	N10089	N	0.872103	0.289383	0.451913
	N10090	N	0.761979	0.404863	0.048852
	N10091	N	0.818775	0.280146	0.047916
	N10092	N	0.804971	0.280686	0.200597
	N10093	N	0.867523	0.342777	0.201885
	N10094	N	0.754218	0.247180	0.296761
	N10095	N	0.816722	0.309789	0.296759
	N10096	N	0.754256	0.247062	0.199996
	N10097	N	0.816808	0.309501	0.199974
	N10098	N	0.804946	0.280828	0.297831
	N10099	N	0.867490	0.343013	0.298944
	H10100	H	0.768224	0.390078	0.850221
	H10101	H	0.827025	0.279719	0.846494
	H10102	H	0.798390	0.324003	0.650876
	H10103	H	0.863895	0.292786	0.652940
	H10104	H	0.798434	0.324417	0.848531
	H10105	H	0.863917	0.292939	0.848290
	H10106	H	0.768384	0.390405	0.651862
	H10107	H	0.827069	0.279032	0.651141
	H10108	H	0.797184	0.276663	0.597569
	H10109	H	0.859706	0.338853	0.598211
	H10110	H	0.761002	0.256714	0.900555
	H10111	H	0.823352	0.319903	0.900187
	H10112	H	0.761108	0.256702	0.597760
	H10113	H	0.823574	0.319231	0.596398
	H10114	H	0.797087	0.277044	0.900969
	H10115	H	0.859603	0.339026	0.900555
	H10116	H	0.778187	0.368844	1.062781
	H10117	H	0.838986	0.284585	1.149585
	H10118	H	0.788373	0.345260	0.577484
	H10119	H	0.851694	0.290403	0.350236
	H10120	H	0.788681	0.346079	1.062690
	H10121	H	0.851509	0.291072	1.149909
	H10122	H	0.777934	0.368182	0.577853
	H10123	H	0.839185	0.283963	0.349638
	H10124	H	0.785032	0.272544	0.897259
	H10125	H	0.847356	0.336356	0.601389
	H10126	H	0.772527	0.266304	0.600955
	H10127	H	0.835024	0.327987	0.897104
	H10128	H	0.772449	0.266621	0.896750
	H10129	H	0.834709	0.330703	0.601272
	H10130	H	0.785120	0.272245	0.601584
	H10131	H	0.847647	0.333725	0.896949
	Co10132	Co	0.873884	0.355869	0.625598
	Co10133	Co	0.811398	0.293367	0.623729
	Co10134	Co	0.748858	0.230911	0.873600
	Co10135	Co	0.811353	0.293662	0.873921
	C10136	C	0.767275	0.392534	0.923747
	C10137	C	0.825752	0.279917	0.921274
	C10138	C	0.799394	0.321841	0.577241
	C10139	C	0.865151	0.292057	0.578314
	C10140	C	0.799410	0.322131	0.922198
	C10141	C	0.865176	0.292176	0.922986
	C10142	C	0.767400	0.392713	0.578188
	C10143	C	0.825758	0.279632	0.576707
	C10144	C	0.798406	0.277158	0.671848
	C10145	C	0.860895	0.339608	0.672249
	C10146	C	0.760047	0.255029	0.826284
	C10147	C	0.822416	0.318062	0.826203
	C10148	C	0.760073	0.255059	0.671799
	C10149	C	0.822541	0.317661	0.671167
	C10150	C	0.798363	0.277413	0.826579
	C10151	C	0.860836	0.339701	0.826690
	C10152	C	0.770998	0.384358	1.000595
	C10153	C	0.830411	0.279829	0.498998
	C10154	C	0.795742	0.330377	0.999310
	C10155	C	0.860485	0.293318	0.500480
	C10156	C	0.793905	0.275131	0.749147
	C10157	C	0.856355	0.337602	0.749282
	C10158	C	0.764074	0.260076	0.748944
	C10159	C	0.826484	0.322960	0.748826
	C10160	C	0.777224	0.370602	1.000235
	C10161	C	0.838027	0.283236	0.499597
	C10162	C	0.789485	0.344062	0.999639
	C10163	C	0.852732	0.291290	0.500232
	C10164	C	0.786230	0.272353	0.749162
	C10165	C	0.848676	0.334908	0.749240
	C10166	C	0.771407	0.265684	0.748831
	C10167	C	0.833815	0.328493	0.749102
	C10168	C	0.780417	0.363891	1.035136
	C10169	C	0.841725	0.285712	1.083092
	C10170	C	0.786246	0.350491	0.543790
	C10171	C	0.848960	0.289169	0.416564
	C10172	C	0.786371	0.350973	1.035010
	C10173	C	0.848855	0.289526	1.083180
	C10174	C	0.780321	0.363495	0.543999
	C10175	C	0.841834	0.285331	0.416469
	C10176	C	0.782358	0.271134	0.831568
	C10177	C	0.844726	0.334362	0.666790
	C10178	C	0.775203	0.267648	0.666472
	C10179	C	0.837682	0.329819	0.831534
	C10180	C	0.775182	0.267818	0.831403
	C10181	C	0.837518	0.331200	0.666622
	C10182	C	0.782386	0.270946	0.666720
	C10183	C	0.844892	0.332952	0.831610
	N10184	N	0.761938	0.404765	0.953179
	N10185	N	0.818784	0.280533	0.949636
	N10186	N	0.804787	0.309813	0.547440
	N10187	N	0.872091	0.289316	0.549526
	N10188	N	0.804785	0.309956	0.951343
	N10189	N	0.872117	0.289558	0.952062
	N10190	N	0.761979	0.404806	0.549410
	N10191	N	0.818793	0.280415	0.547807
	N10192	N	0.805032	0.280564	0.700590
	N10193	N	0.867535	0.342947	0.701418
	N10194	N	0.754253	0.247116	0.797142
	N10195	N	0.816696	0.309889	0.796807
	N10196	N	0.754270	0.247101	0.700873
	N10197	N	0.816763	0.309686	0.700053
	N10198	N	0.805026	0.280665	0.797660
	N10199	N	0.867478	0.343038	0.798435
	H10200	H	0.765380	0.483855	0.349550
	H10201	H	0.830881	0.452681	0.349386
	H10202	H	0.802138	0.497963	0.152597
	H10203	H	0.860889	0.386570	0.151328
	H10204	H	0.802195	0.497517	0.347784
	H10205	H	0.860875	0.386487	0.349406
	H10206	H	0.765407	0.483760	0.154081
	H10207	H	0.830902	0.453176	0.151419
	H10208	H	0.805737	0.457913	0.097944
	H10209	H	0.868263	0.520228	0.098420
	H10210	H	0.769644	0.437976	0.402110
	H10211	H	0.832074	0.500642	0.402122
	H10212	H	0.769590	0.438375	0.099697
	H10213	H	0.832090	0.500785	0.099339
	H10214	H	0.805829	0.457612	0.401587
	H10215	H	0.868214	0.520328	0.402148
	H10216	H	0.777788	0.485977	0.651198
	H10217	H	0.841114	0.432728	0.491625
	H10218	H	0.790048	0.492778	-0.149838
	H10219	H	0.850800	0.407243	0.123204
	H10220	H	0.790299	0.492323	0.651197
	H10221	H	0.851597	0.409848	0.491601
	H10222	H	0.777581	0.486231	-0.149087
	H10223	H	0.840350	0.430341	0.123372
	H10224	H	0.794410	0.447461	0.102390
	H10225	H	0.856805	0.510783	0.399163
	H10226	H	0.781689	0.443069	0.398875
	H10227	H	0.844266	0.504478	0.101489
	H10228	H	0.781772	0.441662	0.102517
	H10229	H	0.844197	0.505138	0.399206
	H10230	H	0.794279	0.448820	0.398263
	H10231	H	0.856880	0.510312	0.101526
	Co10232	Co	0.880416	0.546347	0.125142
	Co10233	Co	0.817876	0.483823	0.125000
	Co10234	Co	0.755386	0.421308	0.376868
	Co10235	Co	0.817944	0.483595	0.374906
	C10236	C	0.764125	0.484690	0.424199
	C10237	C	0.829891	0.455029	0.423309
	C10238	C	0.803497	0.497445	0.077989
	C10239	C	0.861867	0.384332	0.077554
	C10240	C	0.803573	0.497218	0.422357
	C10241	C	0.861934	0.384351	0.423360
	C10242	C	0.764082	0.484684	0.079525
	C10243	C	0.829891	0.455263	0.077696
	C10244	C	0.806757	0.459579	0.172508
	C10245	C	0.869248	0.522116	0.172468
	C10246	C	0.768429	0.437425	0.328598
	C10247	C	0.830873	0.499981	0.328145
	C10248	C	0.768386	0.437526	0.174033
	C10249	C	0.830864	0.500076	0.173182
	C10250	C	0.806810	0.459383	0.327369
	C10251	C	0.869241	0.522122	0.327580
	C10252	C	0.768875	0.483769	0.501437
	C10253	C	0.833526	0.446964	0.000440
	C10254	C	0.798912	0.497172	0.500416
	C10255	C	0.858215	0.392610	0.000315
	C10256	C	0.802749	0.454512	0.250002
	C10257	C	0.865230	0.517030	0.249989
	C10258	C	0.772901	0.439658	0.250995
	C10259	C	0.835384	0.502124	0.250682
	C10260	C	0.776597	0.485837	0.500948
	C10261	C	0.839777	0.433216	0.000254
	C10262	C	0.791318	0.493821	0.500827
	C10263	C	0.851965	0.406376	0.000290
	C10264	C	0.795407	0.448996	0.250329
	C10265	C	0.857913	0.511524	0.250073
	C10266	C	0.780588	0.442377	0.250709
	C10267	C	0.843050	0.504891	0.250375
	C10268	C	0.780447	0.487510	0.584483
	C10269	C	0.843192	0.427051	0.495579
	C10270	C	0.787406	0.491528	-0.082817
	C10271	C	0.848658	0.412720	0.069359
	C10272	C	0.787599	0.491334	0.584415
	C10273	C	0.849128	0.414075	0.495834
	C10274	C	0.780284	0.487589	-0.082600
	C10275	C	0.842740	0.425733	0.069535
	C10276	C	0.791655	0.446516	0.167895
	C10277	C	0.854115	0.509561	0.333030
	C10278	C	0.784406	0.444087	0.333203
	C10279	C	0.846929	0.506038	0.167420
	C10280	C	0.784465	0.443276	0.168091
	C10281	C	0.846907	0.506317	0.333143
	C10282	C	0.791590	0.447354	0.332943
	C10283	C	0.854140	0.509273	0.167330
	N10284	N	0.757201	0.487071	0.453318
	N10285	N	0.824505	0.467177	0.452536
	N10286	N	0.810431	0.496759	0.049190
	N10287	N	0.867229	0.372140	0.048343
	N10288	N	0.810526	0.496637	0.450644
	N10289	N	0.867363	0.372297	0.452584
	N10290	N	0.757141	0.487228	0.050646
	N10291	N	0.824479	0.467381	0.048185
	N10292	N	0.812590	0.467375	0.201430
	N10293	N	0.875018	0.530107	0.201859
	N10294	N	0.761786	0.434100	0.300112
	N10295	N	0.824245	0.496685	0.299027
	N10296	N	0.761764	0.434144	0.203052
	N10297	N	0.824238	0.496719	0.201960
	N10298	N	0.812603	0.467345	0.298058
	N10299	N	0.875023	0.530102	0.298391
	H10300	H	0.765373	0.483562	0.849558
	H10301	H	0.830772	0.452737	0.849691
	H10302	H	0.802290	0.498230	0.652773
	H10303	H	0.861057	0.386891	0.651555
	H10304	H	0.802084	0.497521	0.847477
	H10305	H	0.861012	0.386693	0.849405
	H10306	H	0.765503	0.484254	0.653623
	H10307	H	0.830971	0.452926	0.651977
	H10308	H	0.805824	0.457634	0.598481
	H10309	H	0.868349	0.520078	0.598461
	H10310	H	0.769671	0.437935	0.903489
	H10311	H	0.832157	0.500264	0.901733
	H10312	H	0.769680	0.437913	0.600936
	H10313	H	0.832091	0.500664	0.598930
	H10314	H	0.805805	0.457915	0.902046
	H10315	H	0.868198	0.520477	0.901737
	H10316	H	0.777691	0.485832	1.151825
	H10317	H	0.840912	0.432151	0.877412
	H10318	H	0.790131	0.493445	0.350499
	H10319	H	0.850682	0.406599	0.509998
	H10320	H	0.790176	0.492472	1.151321
	H10321	H	0.851353	0.409180	0.877667
	H10322	H	0.777642	0.486945	0.351093
	H10323	H	0.840177	0.429513	0.510543
	H10324	H	0.794423	0.447427	0.603642
	H10325	H	0.856839	0.510827	0.602840
	H10326	H	0.781776	0.442491	0.898935
	H10327	H	0.844232	0.504497	0.897821
	H10328	H	0.781760	0.441752	0.604139
	H10329	H	0.844206	0.504909	0.602942
	H10330	H	0.794367	0.448363	0.898463
	H10331	H	0.856881	0.510145	0.898086
	Co10332	Co	0.880376	0.546140	0.625277
	Co10333	Co	0.817940	0.483716	0.624871
	Co10334	Co	0.755396	0.421367	0.876944
	Co10335	Co	0.817899	0.483873	0.875742
	C10336	C	0.764077	0.484614	0.924082
	C10337	C	0.829840	0.455082	0.923202
	C10338	C	0.803610	0.497549	0.578042
	C10339	C	0.862023	0.384567	0.577472
	C10340	C	0.803462	0.497274	0.922383
	C10341	C	0.861915	0.384398	0.923204
	C10342	C	0.764193	0.484868	0.579281
	C10343	C	0.829929	0.455162	0.577948
	C10344	C	0.806783	0.459443	0.672809
	C10345	C	0.869318	0.521707	0.672839
	C10346	C	0.768422	0.437408	0.828775
	C10347	C	0.830930	0.499890	0.827541
	C10348	C	0.768419	0.437336	0.674445
	C10349	C	0.830889	0.500079	0.673088
	C10350	C	0.806820	0.459442	0.827735
	C10351	C	0.869252	0.521908	0.827855
	C10352	C	0.768797	0.483453	1.001844
	C10353	C	0.833579	0.446805	0.500821
	C10354	C	0.798781	0.497158	1.000366
	C10355	C	0.858289	0.392697	0.500605
	C10356	C	0.802791	0.454374	0.750399
	C10357	C	0.865272	0.516779	0.750129
	C10358	C	0.772919	0.439429	0.751595
	C10359	C	0.835390	0.501990	0.750068
	C10360	C	0.776520	0.485587	1.001476
	C10361	C	0.839817	0.433023	0.500998
	C10362	C	0.791192	0.493701	1.000693
	C10363	C	0.852010	0.406315	0.500997
	C10364	C	0.795462	0.448758	0.750830
	C10365	C	0.857929	0.511208	0.750247
	C10366	C	0.780617	0.442083	0.751417
	C10367	C	0.843079	0.504724	0.750175
	C10368	C	0.780342	0.487410	1.085125
	C10369	C	0.843078	0.426766	0.931481
	C10370	C	0.787515	0.491897	0.417444
	C10371	C	0.848615	0.412245	0.506062
	C10372	C	0.787480	0.491335	1.084623
	C10373	C	0.848989	0.413740	0.931429
	C10374	C	0.780374	0.488051	0.417478
	C10375	C	0.842677	0.425215	0.506353
	C10376	C	0.791660	0.446498	0.668796
	C10377	C	0.854131	0.509376	0.668036
	C10378	C	0.784478	0.443608	0.833443
	C10379	C	0.846956	0.505923	0.832678
	C10380	C	0.784465	0.443271	0.669171
	C10381	C	0.846939	0.506197	0.667866
	C10382	C	0.791670	0.446859	0.833229
	C10383	C	0.854157	0.509076	0.832719
	N10384	N	0.757137	0.487170	0.953150
	N10385	N	0.824470	0.467320	0.952516
	N10386	N	0.810550	0.496822	0.548963
	N10387	N	0.867404	0.372407	0.548239
	N10388	N	0.810407	0.496685	0.950985
	N10389	N	0.867262	0.372204	0.952899
	N10390	N	0.757248	0.487222	0.550932
	N10391	N	0.824552	0.467288	0.548343
	N10392	N	0.812563	0.467492	0.701826
	N10393	N	0.875047	0.529828	0.702204
	N10394	N	0.761786	0.434077	0.800023
	N10395	N	0.824260	0.496652	0.799035
	N10396	N	0.761754	0.434175	0.703127
	N10397	N	0.824266	0.496618	0.702058
	N10398	N	0.812586	0.467535	0.798239
	N10399	N	0.875033	0.529913	0.798547
	H10400	H	0.759437	0.571253	0.349859
	H10401	H	0.827955	0.545994	0.348238
	H10402	H	0.796779	0.581129	0.152541
	H10403	H	0.864719	0.560282	0.152949
	H10404	H	0.796754	0.580512	0.347251
	H10405	H	0.864711	0.560402	0.347453
	H10406	H	0.759508	0.571581	0.154285
	H10407	H	0.827885	0.546612	0.152933
	H10408	H	0.799290	0.541183	0.097585
	H10409	H	0.861856	0.603269	0.098007
	H10410	H	0.762605	0.524394	0.403738
	H10411	H	0.825139	0.586424	0.402582
	H10412	H	0.762587	0.524045	0.100023
	H10413	H	0.824988	0.587040	0.098356
	H10414	H	0.799447	0.540513	0.401970
	H10415	H	0.861806	0.603343	0.402651
	H10416	H	0.771965	0.572968	0.651791
	H10417	H	0.840185	0.548926	0.350540
	H10418	H	0.784498	0.578322	0.151792
	H10419	H	0.852658	0.555393	0.151390
	H10420	H	0.784627	0.578147	0.650934
	H10421	H	0.852712	0.555522	0.350581
	H10422	H	0.771824	0.573249	0.152111
	H10423	H	0.840208	0.548815	0.151552
	H10424	H	0.787240	0.534928	0.099559
	H10425	H	0.849738	0.597871	0.401338
	H10426	H	0.774539	0.531131	0.401901
	H10427	H	0.837048	0.592770	0.099431
	H10428	H	0.774562	0.530352	0.100417
	H10429	H	0.837038	0.593429	0.401258
	H10430	H	0.787268	0.535507	0.401137
	H10431	H	0.849808	0.597148	0.099151
	Co10432	Co	0.874792	0.625956	0.125309
	Co10433	Co	0.812298	0.563481	0.124379
	Co10434	Co	0.749827	0.500837	0.377904
	Co10435	Co	0.812380	0.563093	0.375566
	C10436	C	0.758266	0.572300	0.424564
	C10437	C	0.826648	0.546967	0.422854
	C10438	C	0.798036	0.580003	0.077914
	C10439	C	0.866036	0.559894	0.078089
	C10440	C	0.798089	0.579733	0.422161
	C10441	C	0.866046	0.559922	0.422623
	C10442	C	0.758208	0.572374	0.079573
	C10443	C	0.826579	0.547276	0.078014
	C10444	C	0.800407	0.542311	0.172353
	C10445	C	0.862944	0.604678	0.172614
	C10446	C	0.761509	0.522865	0.329318
	C10447	C	0.824043	0.585192	0.327848
	C10448	C	0.761506	0.522731	0.174301
	C10449	C	0.823963	0.585521	0.172935
	C10450	C	0.800493	0.541934	0.327431
	C10451	C	0.862919	0.604679	0.327819
	C10452	C	0.762993	0.571388	0.501905
	C10453	C	0.831320	0.546206	0.000447
	C10454	C	0.793408	0.581096	0.499944
	C10455	C	0.861365	0.559634	0.000420
	C10456	C	0.796096	0.538714	0.250070
	C10457	C	0.858588	0.601133	0.249961
	C10458	C	0.765783	0.526675	0.251682
	C10459	C	0.828280	0.589219	0.250270
	C10460	C	0.770748	0.573143	0.501267
	C10461	C	0.839046	0.548317	0.000724
	C10462	C	0.785640	0.579411	0.500171
	C10463	C	0.853767	0.556301	0.000564
	C10464	C	0.788456	0.535359	0.250449
	C10465	C	0.850970	0.597712	0.250113
	C10466	C	0.773357	0.530455	0.251375
	C10467	C	0.835872	0.592912	0.250318
	C10468	C	0.774654	0.574351	0.584908
	C10469	C	0.842865	0.550394	0.416928
	C10470	C	0.781776	0.577404	0.084793
	C10471	C	0.849993	0.554029	0.084322
	C10472	C	0.781879	0.577303	0.584220
	C10473	C	0.850005	0.554210	0.416989
	C10474	C	0.774550	0.574421	0.085129
	C10475	C	0.842840	0.550261	0.084443
	C10476	C	0.784537	0.534044	0.166722
	C10477	C	0.847060	0.596700	0.334128
	C10478	C	0.777248	0.531953	0.334784
	C10479	C	0.839785	0.593919	0.166342
	C10480	C	0.777254	0.531526	0.167300
	C10481	C	0.839764	0.594312	0.334323
	C10482	C	0.784543	0.534339	0.334389
	C10483	C	0.847097	0.596237	0.166347
	N10484	N	0.751328	0.574908	0.453592
	N10485	N	0.819693	0.549373	0.451643
	N10486	N	0.804966	0.577315	0.048853
	N10487	N	0.872987	0.559218	0.049281
	N10488	N	0.805041	0.577045	0.450907
	N10489	N	0.873004	0.559193	0.451050
	N10490	N	0.751249	0.575059	0.051011
	N10491	N	0.819644	0.549699	0.048898
	N10492	N	0.806706	0.547980	0.201027
	N10493	N	0.869208	0.610489	0.201704
	N10494	N	0.755352	0.516464	0.300706
	N10495	N	0.817864	0.578885	0.299028
	N10496	N	0.755366	0.516363	0.203530
	N10497	N	0.817821	0.579063	0.201833
	N10498	N	0.806748	0.547774	0.298426
	N10499	N	0.869178	0.610525	0.299263
	H10500	H	0.759411	0.571413	0.849388
	H10501	H	0.827922	0.546336	0.848011
	H10502	H	0.796815	0.581248	0.652259
	H10503	H	0.864762	0.560425	0.652373
	H10504	H	0.796675	0.580614	0.848478
	H10505	H	0.864684	0.560167	0.848567
	H10506	H	0.759567	0.572003	0.654244
	H10507	H	0.827939	0.546785	0.652809
	H10508	H	0.799300	0.541019	0.598045
	H10509	H	0.861830	0.603205	0.598658
	H10510	H	0.762801	0.523993	0.904245
	H10511	H	0.825062	0.586669	0.902178
	H10512	H	0.762522	0.524440	0.599908
	H10513	H	0.825125	0.586759	0.598492
	H10514	H	0.799412	0.540692	0.902181
	H10515	H	0.861866	0.603183	0.903046
	H10516	H	0.771698	0.574013	0.850418
	H10517	H	0.840184	0.548792	0.850474
	H10518	H	0.784377	0.579617	0.349318
	H10519	H	0.852706	0.555525	0.650740
	H10520	H	0.784319	0.579188	0.849801
	H10521	H	0.852709	0.555337	0.850183
	H10522	H	0.771741	0.574432	0.350623
	H10523	H	0.840237	0.548897	0.650718
	H10524	H	0.787276	0.534681	0.599916
	H10525	H	0.849835	0.597417	0.600808
	H10526	H	0.774626	0.530971	0.901307
	H10527	H	0.837088	0.593069	0.901607
	H10528	H	0.774550	0.530148	0.600559
	H10529	H	0.837101	0.593072	0.600504
	H10530	H	0.787344	0.535310	0.900734
	H10531	H	0.849815	0.597581	0.901770
	Co10532	Co	0.874781	0.625786	0.625022
	Co10533	Co	0.812348	0.563407	0.624787
	Co10534	Co	0.749804	0.501023	0.877898
	Co10535	Co	0.812297	0.563372	0.875658
	C10536	C	0.758170	0.572463	0.924216
	C10537	C	0.826605	0.547316	0.922651
	C10538	C	0.798115	0.580088	0.577527
	C10539	C	0.866046	0.559965	0.577733
	C10540	C	0.797990	0.579735	0.922610
	C10541	C	0.866023	0.559799	0.922669
	C10542	C	0.758318	0.572639	0.579689
	C10543	C	0.826653	0.547391	0.578248
	C10544	C	0.800427	0.542342	0.672530
	C10545	C	0.862925	0.604505	0.673503
	C10546	C	0.761611	0.522714	0.829883
	C10547	C	0.823969	0.585265	0.827719
	C10548	C	0.761502	0.522884	0.674749
	C10549	C	0.824009	0.585373	0.672975
	C10550	C	0.800477	0.542079	0.827697
	C10551	C	0.862928	0.604609	0.828498
	C10552	C	0.762872	0.571256	1.001789
	C10553	C	0.831347	0.546218	0.500446
	C10554	C	0.793318	0.581020	1.000481
	C10555	C	0.861391	0.559866	0.500076
	C10556	C	0.796125	0.538665	0.750156
	C10557	C	0.858623	0.601033	0.751058
	C10558	C	0.765835	0.526527	0.752015
	C10559	C	0.828289	0.589131	0.750638
	C10560	C	0.770652	0.572953	1.001346
	C10561	C	0.839082	0.548466	0.500521
	C10562	C	0.785564	0.579239	1.000936
	C10563	C	0.853770	0.556507	0.500403
	C10564	C	0.788511	0.535196	0.750288
	C10565	C	0.850990	0.597704	0.751129
	C10566	C	0.773432	0.530207	0.751135
	C10567	C	0.835910	0.592816	0.751100
	C10568	C	0.774457	0.574893	0.917211
	C10569	C	0.842849	0.550235	0.917187
	C10570	C	0.781740	0.578247	0.416511
	C10571	C	0.850021	0.554185	0.584122
	C10572	C	0.781679	0.577881	0.917136
	C10573	C	0.849998	0.554023	0.916934
	C10574	C	0.774519	0.575215	0.417145
	C10575	C	0.842897	0.550341	0.584142
	C10576	C	0.784597	0.533775	0.666905
	C10577	C	0.847077	0.596510	0.667331
	C10578	C	0.777343	0.531796	0.834487
	C10579	C	0.839789	0.594129	0.834741
	C10580	C	0.777309	0.531255	0.667164
	C10581	C	0.839796	0.594094	0.667557
	C10582	C	0.784628	0.534233	0.833959
	C10583	C	0.847077	0.596559	0.834864
	N10584	N	0.751224	0.575122	0.953296
	N10585	N	0.819667	0.549716	0.951152
	N10586	N	0.805055	0.577313	0.548703
	N10587	N	0.873002	0.559205	0.549231
	N10588	N	0.804948	0.577181	0.951246
	N10589	N	0.872989	0.559119	0.951059
	N10590	N	0.751370	0.575164	0.551344
	N10591	N	0.819695	0.549631	0.549319
	N10592	N	0.806716	0.548071	0.701498
	N10593	N	0.869207	0.610378	0.702404
	N10594	N	0.755394	0.516533	0.801274
	N10595	N	0.817801	0.579041	0.798613
	N10596	N	0.755318	0.516635	0.704173
	N10597	N	0.817834	0.579099	0.701524
	N10598	N	0.806726	0.547969	0.798697
	N10599	N	0.869209	0.610420	0.799665
	H10600	H	0.754040	0.653741	0.349867
	H10601	H	0.821980	0.633650	0.347295
	H10602	H	0.790971	0.668683	0.152112
	H10603	H	0.859257	0.643383	0.152687
	H10604	H	0.790814	0.668052	0.346930
	H10605	H	0.859204	0.643258	0.347920
	H10606	H	0.754170	0.654477	0.154270
	H10607	H	0.822027	0.633768	0.152676
	H10608	H	0.793574	0.628358	0.098582
	H10609	H	0.856179	0.690492	0.098222
	H10610	H	0.757089	0.610966	0.404167
	H10611	H	0.819482	0.673569	0.403056
	H10612	H	0.756853	0.611662	0.099906
	H10613	H	0.819494	0.673767	0.098388
	H10614	H	0.793752	0.627712	0.402000
	H10615	H	0.856116	0.690659	0.402036
	H10616	H	0.765964	0.660276	0.351597
	H10617	H	0.834239	0.636316	0.348865
	H10618	H	0.778498	0.666721	-0.149594
	H10619	H	0.846969	0.640999	0.152026
	H10620	H	0.778425	0.666699	0.350564
	H10621	H	0.846919	0.641298	0.349373
	H10622	H	0.766038	0.660300	-0.149274
	H10623	H	0.834304	0.635948	0.152055
	H10624	H	0.781756	0.620821	0.100495
	H10625	H	0.844243	0.684123	0.401211
	H10626	H	0.768934	0.618134	0.401946
	H10627	H	0.831511	0.679672	0.099750
	H10628	H	0.769050	0.616221	0.101030
	H10629	H	0.831526	0.679777	0.401372
	H10630	H	0.781673	0.622559	0.400968
	H10631	H	0.844256	0.684001	0.099626
	Co10632	Co	0.869006	0.713944	0.125179
	Co10633	Co	0.806453	0.651279	0.124308
	Co10634	Co	0.743971	0.588679	0.378072
	Co10635	Co	0.806456	0.651183	0.375527
	C10636	C	0.752762	0.654505	0.424432
	C10637	C	0.820690	0.634719	0.422417
	C10638	C	0.792227	0.667844	0.077705
	C10639	C	0.860545	0.642507	0.078523
	C10640	C	0.792116	0.667312	0.422161
	C10641	C	0.860497	0.642281	0.422240
	C10642	C	0.752826	0.654852	0.079420
	C10643	C	0.820711	0.634517	0.078203
	C10644	C	0.794684	0.629566	0.172690
	C10645	C	0.857299	0.691975	0.172999
	C10646	C	0.755882	0.609803	0.329635
	C10647	C	0.818401	0.672340	0.328102
	C10648	C	0.755789	0.610085	0.174410
	C10649	C	0.818399	0.672421	0.172766
	C10650	C	0.794772	0.629293	0.327518
	C10651	C	0.857251	0.692058	0.327995
	C10652	C	0.757402	0.654859	0.501929
	C10653	C	0.825431	0.633424	0.000671
	C10654	C	0.787467	0.668539	0.500460
	C10655	C	0.855838	0.643551	0.000912
	C10656	C	0.790448	0.625634	0.250264
	C10657	C	0.853005	0.688215	0.250333
	C10658	C	0.760189	0.613424	0.251765
	C10659	C	0.822732	0.675876	0.250611
	C10660	C	0.765035	0.658267	0.501646
	C10661	C	0.833186	0.635253	0.000828
	C10662	C	0.779729	0.666275	0.500946
	C10663	C	0.848095	0.641711	0.000830
	C10664	C	0.782875	0.621883	0.250626
	C10665	C	0.845409	0.684357	0.250411
	C10666	C	0.767818	0.616890	0.251403
	C10667	C	0.830343	0.679323	0.250639
	C10668	C	0.768724	0.661128	0.417974
	C10669	C	0.836968	0.637149	0.415858
	C10670	C	0.775900	0.664971	-0.082818
	C10671	C	0.844251	0.639999	0.084861
	C10672	C	0.775852	0.664902	0.417613
	C10673	C	0.844200	0.640114	0.416054
	C10674	C	0.768777	0.661183	-0.082558
	C10675	C	0.837023	0.636949	0.084965
	C10676	C	0.779016	0.620148	0.167345
	C10677	C	0.841524	0.683101	0.334321
	C10678	C	0.771669	0.618654	0.334931
	C10679	C	0.834244	0.680479	0.166866
	C10680	C	0.771728	0.617637	0.167807
	C10681	C	0.834253	0.680603	0.334286
	C10682	C	0.778956	0.621106	0.334530
	C10683	C	0.841529	0.682991	0.166616
	N10684	N	0.745785	0.655253	0.453154
	N10685	N	0.813757	0.637424	0.451560
	N10686	N	0.799177	0.665221	0.048668
	N10687	N	0.867497	0.639883	0.049726
	N10688	N	0.799092	0.664918	0.450884
	N10689	N	0.867443	0.639652	0.451716
	N10690	N	0.745857	0.655442	0.051071
	N10691	N	0.813773	0.637297	0.049046
	N10692	N	0.800869	0.635826	0.201326
	N10693	N	0.863468	0.698291	0.202185
	N10694	N	0.749593	0.604072	0.300828
	N10695	N	0.812147	0.666457	0.298882
	N10696	N	0.749547	0.604209	0.203633
	N10697	N	0.812139	0.666496	0.201534
	N10698	N	0.800928	0.635674	0.298296
	N10699	N	0.863438	0.698348	0.298950
	H10700	H	0.754107	0.654036	0.848704
	H10701	H	0.822041	0.633779	0.848515
	H10702	H	0.790919	0.668544	0.652650
	H10703	H	0.859173	0.643184	0.652890
	H10704	H	0.790925	0.667970	0.848449
	H10705	H	0.859306	0.643303	0.848514
	H10706	H	0.754051	0.654644	0.654070
	H10707	H	0.822009	0.634060	0.652638
	H10708	H	0.793614	0.628501	0.598352
	H10709	H	0.856234	0.690751	0.599156
	H10710	H	0.757021	0.611527	0.904768
	H10711	H	0.819541	0.673717	0.902745
	H10712	H	0.756961	0.611649	0.599908
	H10713	H	0.819536	0.673868	0.598452
	H10714	H	0.793873	0.627628	0.902127
	H10715	H	0.856276	0.690567	0.902793
	H10716	H	0.766266	0.658640	1.151142
	H10717	H	0.834349	0.635949	0.849685
	H10718	H	0.778679	0.665043	0.651282
	H10719	H	0.846936	0.641015	0.650525
	H10720	H	0.778747	0.665188	1.151191
	H10721	H	0.846927	0.641046	0.849448
	H10722	H	0.766238	0.658532	0.651407
	H10723	H	0.834316	0.635946	0.650640
	H10724	H	0.781722	0.622202	0.901957
	H10725	H	0.844316	0.684002	0.600125
	H10726	H	0.769026	0.616557	0.601246
	H10727	H	0.831541	0.679882	0.901586
	H10728	H	0.768994	0.617834	0.902149
	H10729	H	0.831608	0.679455	0.600152
	H10730	H	0.781764	0.620822	0.600636
	H10731	H	0.844260	0.684218	0.901299
	Co10732	Co	0.868991	0.714151	0.625138
	Co10733	Co	0.806479	0.651496	0.624435
	Co10734	Co	0.743920	0.589192	0.878022
	Co10735	Co	0.806519	0.651293	0.875604
	C10736	C	0.752805	0.654632	0.923738
	C10737	C	0.820733	0.634670	0.922790
	C10738	C	0.792182	0.667689	0.577852
	C10739	C	0.860480	0.642219	0.577972
	C10740	C	0.792186	0.667396	0.922492
	C10741	C	0.860553	0.642341	0.923406
	C10742	C	0.752771	0.654944	0.579489
	C10743	C	0.820719	0.634849	0.577960
	C10744	C	0.794741	0.629651	0.672870
	C10745	C	0.857286	0.692058	0.673261
	C10746	C	0.755920	0.610093	0.830028
	C10747	C	0.818420	0.672494	0.828248
	C10748	C	0.755879	0.610251	0.674775
	C10749	C	0.818442	0.672448	0.673205
	C10750	C	0.794851	0.629321	0.827650
	C10751	C	0.857289	0.692056	0.827852
	C10752	C	0.757448	0.654929	1.001566
	C10753	C	0.825397	0.633587	0.500064
	C10754	C	0.787537	0.668638	1.000499
	C10755	C	0.855812	0.643451	0.500008
	C10756	C	0.790520	0.625629	0.750479
	C10757	C	0.853020	0.688153	0.750458
	C10758	C	0.760216	0.613628	0.752319
	C10759	C	0.822761	0.676013	0.750704
	C10760	C	0.765085	0.658377	1.001225
	C10761	C	0.833148	0.635390	0.499777
	C10762	C	0.779796	0.666428	1.000759
	C10763	C	0.848055	0.641641	0.499947
	C10764	C	0.782941	0.621848	0.751134
	C10765	C	0.845459	0.684356	0.750452
	C10766	C	0.767858	0.616965	0.751824
	C10767	C	0.830387	0.679445	0.750761
	C10768	C	0.768917	0.660279	1.084561
	C10769	C	0.837030	0.636964	0.916899
	C10770	C	0.775993	0.663973	0.584417
	C10771	C	0.844221	0.640062	0.583769
	C10772	C	0.776038	0.664093	1.084364
	C10773	C	0.844252	0.640068	0.916834
	C10774	C	0.768884	0.660115	0.584888
	C10775	C	0.836999	0.637047	0.583498
	C10776	C	0.779036	0.620944	0.835024
	C10777	C	0.841574	0.683039	0.666867
	C10778	C	0.771763	0.617779	0.667902
	C10779	C	0.834261	0.680680	0.834593
	C10780	C	0.771752	0.618523	0.835349
	C10781	C	0.834292	0.680620	0.666979
	C10782	C	0.779058	0.620122	0.667749
	C10783	C	0.841569	0.683073	0.834473
	N10784	N	0.745837	0.655310	0.952849
	N10785	N	0.813803	0.637339	0.951495
	N10786	N	0.799119	0.665145	0.548596
	N10787	N	0.867418	0.639533	0.549131
	N10788	N	0.799154	0.665009	0.951039
	N10789	N	0.867485	0.639812	0.952168
	N10790	N	0.745813	0.655511	0.551463
	N10791	N	0.813777	0.637500	0.549228
	N10792	N	0.800900	0.635991	0.701491
	N10793	N	0.863416	0.698569	0.702100
	N10794	N	0.749614	0.604411	0.801085
	N10795	N	0.812184	0.666540	0.799099
	N10796	N	0.749602	0.604430	0.703904
	N10797	N	0.812183	0.666602	0.701717
	N10798	N	0.800988	0.635705	0.798698
	N10799	N	0.863418	0.698549	0.799234
	H10800	H	0.760802	0.835596	0.351090
	H10801	H	0.816513	0.716848	0.347591
	H10802	H	0.788692	0.763781	0.150410
	H10803	H	0.853392	0.730907	0.153708
	H10804	H	0.788667	0.763718	0.349975
	H10805	H	0.853394	0.730816	0.347650
	H10806	H	0.760634	0.835337	0.149183
	H10807	H	0.816667	0.716668	0.152617
	H10808	H	0.786573	0.715039	0.099349
	H10809	H	0.849192	0.777021	0.100064
	H10810	H	0.750646	0.694374	0.403555
	H10811	H	0.813031	0.757220	0.403007
	H10812	H	0.750539	0.694630	0.099804
	H10813	H	0.813173	0.757021	0.099148
	H10814	H	0.786743	0.714083	0.401139
	H10815	H	0.849256	0.776588	0.402086
	H10816	H	0.769632	0.811720	0.494027
	H10817	H	0.828574	0.722148	0.349692
	H10818	H	0.779266	0.786554	0.015979
	H10819	H	0.841147	0.728297	0.151478
	H10820	H	0.779310	0.786694	0.493560
	H10821	H	0.840993	0.728955	0.349569
	H10822	H	0.769552	0.811536	0.015418
	H10823	H	0.828651	0.721662	0.150735
	H10824	H	0.774634	0.709384	0.102076
	H10825	H	0.837089	0.772999	0.399171
	H10826	H	0.761947	0.705045	0.399417
	H10827	H	0.824474	0.766913	0.103239
	H10828	H	0.762048	0.703394	0.102624
	H10829	H	0.824448	0.767168	0.399309
	H10830	H	0.774556	0.710784	0.399181
	H10831	H	0.837085	0.772647	0.102929
	Co10832	Co	0.863400	0.793641	0.126056
	Co10833	Co	0.800972	0.731243	0.124835
	Co10834	Co	0.738445	0.668419	0.377451
	Co10835	Co	0.800921	0.731142	0.375447
	C10836	C	0.759833	0.837952	0.424063
	C10837	C	0.815246	0.717275	0.422667
	C10838	C	0.789541	0.761182	0.076736
	C10839	C	0.854679	0.730105	0.078887
	C10840	C	0.789544	0.761144	0.423422
	C10841	C	0.854670	0.729999	0.422531
	C10842	C	0.759756	0.837896	0.076018
	C10843	C	0.815327	0.717289	0.078025
	C10844	C	0.787872	0.715417	0.173231
	C10845	C	0.850408	0.777615	0.173516
	C10846	C	0.749632	0.692645	0.329482
	C10847	C	0.812078	0.755497	0.328508
	C10848	C	0.749546	0.692837	0.174563
	C10849	C	0.812158	0.755360	0.173491
	C10850	C	0.787957	0.714930	0.327214
	C10851	C	0.850446	0.777434	0.328053
	C10852	C	0.763106	0.828773	0.500723
	C10853	C	0.819982	0.717535	0.000408
	C10854	C	0.785993	0.769753	0.500529
	C10855	C	0.849989	0.731156	0.001343
	C10856	C	0.783412	0.712987	0.250460
	C10857	C	0.845930	0.775430	0.250956
	C10858	C	0.753601	0.697871	0.251768
	C10859	C	0.816100	0.760613	0.251295
	C10860	C	0.768863	0.813727	0.501185
	C10861	C	0.827614	0.720870	0.000368
	C10862	C	0.780147	0.784609	0.500741
	C10863	C	0.842276	0.729001	0.001064
	C10864	C	0.775737	0.710161	0.250648
	C10865	C	0.838256	0.772742	0.251223
	C10866	C	0.760926	0.703456	0.251179
	C10867	C	0.823433	0.766214	0.251428
	C10868	C	0.771740	0.806239	0.497014
	C10869	C	0.831269	0.723263	0.416460
	C10870	C	0.777204	0.791998	0.008377
	C10871	C	0.838483	0.726947	0.084640
	C10872	C	0.777230	0.792073	0.496876
	C10873	C	0.838396	0.727154	0.416195
	C10874	C	0.771689	0.806107	0.008459
	C10875	C	0.831372	0.723076	0.084320
	C10876	C	0.771914	0.708379	0.167909
	C10877	C	0.834398	0.771534	0.333771
	C10878	C	0.764683	0.705877	0.333894
	C10879	C	0.827215	0.768205	0.168666
	C10880	C	0.764724	0.705117	0.168207
	C10881	C	0.827202	0.768373	0.333997
	C10882	C	0.771873	0.709172	0.333616
	C10883	C	0.834408	0.771379	0.168569
	N10884	N	0.754891	0.851353	0.452443
	N10885	N	0.808280	0.717934	0.451505
	N10886	N	0.794616	0.748211	0.047528
	N10887	N	0.861632	0.727656	0.050119
	N10888	N	0.794564	0.748081	0.452656
	N10889	N	0.861626	0.727675	0.451692
	N10890	N	0.754874	0.851358	0.046755
	N10891	N	0.808364	0.718084	0.049378
	N10892	N	0.794511	0.718696	0.201723
	N10893	N	0.857049	0.780884	0.202281
	N10894	N	0.743856	0.684576	0.300278
	N10895	N	0.806365	0.747293	0.298664
	N10896	N	0.743817	0.684643	0.204097
	N10897	N	0.806382	0.747301	0.202345
	N10898	N	0.794556	0.718451	0.298226
	N10899	N	0.857067	0.780839	0.299395
	H10900	H	0.760708	0.835442	0.849749
	H10901	H	0.816653	0.717263	0.848213
	H10902	H	0.788326	0.762779	0.651092
	H10903	H	0.853357	0.731099	0.651922
	H10904	H	0.788486	0.763099	0.848597
	H10905	H	0.853435	0.730840	0.849056
	H10906	H	0.760515	0.835212	0.649895
	H10907	H	0.816598	0.716811	0.652576
	H10908	H	0.786566	0.714922	0.600161
	H10909	H	0.849115	0.777176	0.599828
	H10910	H	0.750633	0.694390	0.903475
	H10911	H	0.812983	0.757561	0.901713
	H10912	H	0.750459	0.694687	0.600233
	H10913	H	0.813179	0.756876	0.598199
	H10914	H	0.786758	0.713894	0.902136
	H10915	H	0.849170	0.776873	0.901548
	H10916	H	0.769678	0.811606	0.982802
	H10917	H	0.828703	0.721996	0.849766
	H10918	H	0.779426	0.786728	0.508626
	H10919	H	0.841192	0.728090	0.649727
	H10920	H	0.779437	0.786766	0.982944
	H10921	H	0.841110	0.728651	0.850443
	H10922	H	0.769726	0.811731	0.508497
	H10923	H	0.828696	0.721470	0.650043
	H10924	H	0.774443	0.711271	0.898996
	H10925	H	0.837107	0.772664	0.602512
	H10926	H	0.762082	0.703536	0.603561
	H10927	H	0.824434	0.766914	0.898250
	H10928	H	0.761842	0.705350	0.898920
	H10929	H	0.824500	0.766693	0.602461
	H10930	H	0.774630	0.709438	0.603346
	H10931	H	0.837026	0.772736	0.898526
	Co10932	Co	0.863420	0.793612	0.625980
	Co10933	Co	0.800913	0.731046	0.625146
	Co10934	Co	0.738453	0.668431	0.877626
	Co10935	Co	0.800967	0.731076	0.875209
	C10936	C	0.759795	0.837967	0.922991
	C10937	C	0.815353	0.717577	0.922687
	C10938	C	0.789353	0.760641	0.577448
	C10939	C	0.854660	0.730156	0.577695
	C10940	C	0.789443	0.760810	0.922326
	C10941	C	0.854679	0.730099	0.923707
	C10942	C	0.759682	0.837780	0.576847
	C10943	C	0.815263	0.717262	0.577968
	C10944	C	0.787834	0.715318	0.673885
	C10945	C	0.850386	0.777734	0.673701
	C10946	C	0.749597	0.692716	0.828960
	C10947	C	0.812018	0.755582	0.827575
	C10948	C	0.749517	0.692916	0.674251
	C10949	C	0.812080	0.755338	0.672464
	C10950	C	0.787947	0.714840	0.828492
	C10951	C	0.850397	0.777569	0.827788
	C10952	C	0.763123	0.828836	0.999578
	C10953	C	0.819920	0.717443	0.500337
	C10954	C	0.785995	0.769793	0.999322
	C10955	C	0.849977	0.731115	0.500067
	C10956	C	0.783382	0.713035	0.751557
	C10957	C	0.845883	0.775520	0.750732
	C10958	C	0.753579	0.697898	0.751475
	C10959	C	0.816052	0.760601	0.750083
	C10960	C	0.768834	0.813691	0.999493
	C10961	C	0.827537	0.720801	0.500107
	C10962	C	0.780156	0.784631	0.998984
	C10963	C	0.842245	0.728886	0.499824
	C10964	C	0.775719	0.710274	0.751506
	C10965	C	0.838208	0.772857	0.750530
	C10966	C	0.760883	0.703577	0.751364
	C10967	C	0.823375	0.766196	0.750348
	C10968	C	0.771765	0.806265	0.990169
	C10969	C	0.831362	0.723320	0.916742
	C10970	C	0.777284	0.792105	0.505128
	C10971	C	0.838480	0.726725	0.583328
	C10972	C	0.777270	0.792127	0.990019
	C10973	C	0.838476	0.727157	0.917111
	C10974	C	0.771791	0.806258	0.505262
	C10975	C	0.831339	0.722962	0.583321
	C10976	C	0.771803	0.709427	0.833469
	C10977	C	0.834376	0.771422	0.667915
	C10978	C	0.764732	0.705208	0.668916
	C10979	C	0.827135	0.768204	0.832810
	C10980	C	0.764608	0.706146	0.833566
	C10981	C	0.827179	0.768161	0.667821
	C10982	C	0.771919	0.708478	0.668958
	C10983	C	0.834331	0.771452	0.832816
	N10984	N	0.754906	0.851398	0.951691
	N10985	N	0.808381	0.718222	0.951329
	N10986	N	0.794466	0.747813	0.548112
	N10987	N	0.861612	0.727811	0.549202
	N10988	N	0.794547	0.748011	0.952030
	N10989	N	0.861630	0.727657	0.952498
	N10990	N	0.754798	0.851250	0.547340
	N10991	N	0.808301	0.717903	0.549760
	N10992	N	0.794490	0.718534	0.702378
	N10993	N	0.857022	0.780967	0.702343
	N10994	N	0.743835	0.684706	0.800405
	N10995	N	0.806280	0.747417	0.797957
	N10996	N	0.743804	0.684704	0.703934
	N10997	N	0.806316	0.747300	0.701747
	N10998	N	0.794566	0.718241	0.799337
	N10999	N	0.857032	0.780879	0.799123
	H11000	H	0.772202	1.037567	0.349307
	H11001	H	0.823038	0.897850	0.351549
	H11002	H	0.800174	0.965895	0.148472
	H11003	H	0.851013	0.825962	0.150833
	H11004	H	0.800055	0.965297	0.350549
	H11005	H	0.850945	0.825910	0.350510
	H11006	H	0.772370	1.038328	0.151257
	H11007	H	0.823432	0.898694	0.150373
	H11008	H	0.797810	0.913766	0.102207
	H11009	H	0.860330	0.975530	0.102199
	H11010	H	0.763159	0.887036	0.396829
	H11011	H	0.825647	0.949662	0.398884
	H11012	H	0.763034	0.887974	0.101867
	H11013	H	0.825447	0.950847	0.104213
	H11014	H	0.797740	0.913042	0.397142
	H11015	H	0.860261	0.976135	0.397249
	H11016	H	0.781879	1.015431	0.510220
	H11017	H	0.831921	0.873879	0.400997
	H11018	H	0.791406	0.990309	0.100187
	H11019	H	0.842049	0.849746	-0.101840
	H11020	H	0.791566	0.990378	0.510009
	H11021	H	0.841673	0.848779	0.401048
	H11022	H	0.781723	1.015280	0.099260
	H11023	H	0.832433	0.874974	-0.102424
	H11024	H	0.786533	0.905368	0.235291
	H11025	H	0.849043	0.968095	0.265767
	H11026	H	0.774413	0.895453	0.263457
	H11027	H	0.836751	0.958096	0.234845
	H11028	H	0.774165	0.896668	0.234330
	H11029	H	0.836710	0.959673	0.266260
	H11030	H	0.786695	0.904145	0.264014
	H11031	H	0.849122	0.966380	0.234813
	Co11032	Co	0.874131	0.994051	0.123687
	Co11033	Co	0.811668	0.931982	0.125257
	Co11034	Co	0.749181	0.869030	0.374393
	Co11035	Co	0.811646	0.931781	0.376429
	C11036	C	0.771361	1.040167	0.422991
	C11037	C	0.822210	0.900444	0.424406
	C11038	C	0.801078	0.963347	0.076602
	C11039	C	0.851917	0.823413	0.077388
	C11040	C	0.801008	0.962981	0.423717
	C11041	C	0.851904	0.823470	0.424088
	C11042	C	0.771444	1.040626	0.077116
	C11043	C	0.822457	0.900972	0.077287
	C11044	C	0.798972	0.914685	0.174242
	C11045	C	0.861481	0.976685	0.174172
	C11046	C	0.761949	0.886141	0.324850
	C11047	C	0.824425	0.948920	0.327118
	C11048	C	0.761875	0.886636	0.173527
	C11049	C	0.824323	0.949480	0.175967
	C11050	C	0.798946	0.914361	0.325369
	C11051	C	0.861449	0.977074	0.325355
	C11052	C	0.774904	1.031464	0.500301
	C11053	C	0.825735	0.891793	0.000874
	C11054	C	0.797697	0.972251	0.500012
	C11055	C	0.848454	0.832237	0.000341
	C11056	C	0.794774	0.910799	0.249521
	C11057	C	0.857274	0.973153	0.249805
	C11058	C	0.766092	0.890139	0.249253
	C11059	C	0.828547	0.952965	0.251462
	C11060	C	0.780689	1.016508	0.500273
	C11061	C	0.831456	0.876616	0.000667
	C11062	C	0.791962	0.987301	0.499974
	C11063	C	0.842661	0.847256	0.000338
	C11064	C	0.787542	0.905360	0.249624
	C11065	C	0.850014	0.967919	0.250269
	C11066	C	0.773347	0.895519	0.249042
	C11067	C	0.835800	0.958302	0.250787
	C11068	C	0.783826	1.009540	0.505709
	C11069	C	0.834141	0.868598	0.444825
	C11070	C	0.789193	0.995356	0.055905
	C11071	C	0.839876	0.855012	-0.057039
	C11072	C	0.789308	0.995338	0.505618
	C11073	C	0.839648	0.854423	0.445034
	C11074	C	0.783727	1.009587	0.055911
	C11075	C	0.834436	0.869290	-0.057037
	C11076	C	0.783879	0.903168	0.241543
	C11077	C	0.846376	0.965884	0.259211
	C11078	C	0.777033	0.897684	0.257060
	C11079	C	0.839433	0.960315	0.241689
	C11080	C	0.776927	0.898278	0.241017
	C11081	C	0.839407	0.961212	0.259415
	C11082	C	0.783975	0.902523	0.257649
	C11083	C	0.846403	0.964982	0.241649
	N11084	N	0.766328	1.053202	0.452085
	N11085	N	0.817311	0.913821	0.453508
	N11086	N	0.806016	0.949996	0.047852
	N11087	N	0.856966	0.810389	0.048303
	N11088	N	0.805930	0.949671	0.452975
	N11089	N	0.856954	0.810410	0.453251
	N11090	N	0.766369	1.053594	0.047816
	N11091	N	0.817470	0.914265	0.048428
	N11092	N	0.805147	0.920343	0.203482
	N11093	N	0.867676	0.982366	0.202605
	N11094	N	0.755738	0.880611	0.296029
	N11095	N	0.818213	0.943308	0.298223
	N11096	N	0.755687	0.880927	0.201924
	N11097	N	0.818159	0.943643	0.204467
	N11098	N	0.805147	0.920097	0.297435
	N11099	N	0.867644	0.982633	0.296438
	H11100	H	0.772180	1.037915	0.848654
	H11101	H	0.823119	0.898282	0.851369
	H11102	H	0.800230	0.965882	0.649936
	H11103	H	0.851080	0.825947	0.652137
	H11104	H	0.800109	0.965808	0.851830
	H11105	H	0.851062	0.825917	0.850056
	H11106	H	0.772460	1.038298	0.651398
	H11107	H	0.823340	0.898469	0.649859
	H11108	H	0.797867	0.913457	0.602910
	H11109	H	0.860268	0.975881	0.601687
	H11110	H	0.763088	0.887574	0.896292
	H11111	H	0.825625	0.949847	0.897499
	H11112	H	0.763022	0.887789	0.601396
	H11113	H	0.825517	0.950587	0.603173
	H11114	H	0.797755	0.913566	0.897657
	H11115	H	0.860325	0.975938	0.896404
	H11116	H	0.781259	1.014075	0.900941
	H11117	H	0.832045	0.874047	1.103530
	H11118	H	0.790730	0.988476	0.490484
	H11119	H	0.842094	0.849876	0.601479
	H11120	H	0.790871	0.988892	0.900677
	H11121	H	0.841672	0.848881	1.102614
	H11122	H	0.781058	1.013515	0.490839
	H11123	H	0.832396	0.874986	0.600391
	H11124	H	0.786688	0.904619	0.734434
	H11125	H	0.848783	0.969576	0.707572
	H11126	H	0.774178	0.896653	0.765077
	H11127	H	0.837086	0.956306	0.792316
	H11128	H	0.774318	0.896202	0.733693
	H11129	H	0.836440	0.961123	0.708100
	H11130	H	0.786505	0.905239	0.764976
	H11131	H	0.849415	0.964991	0.791395
	Co11132	Co	0.874186	0.994404	0.623096
	Co11133	Co	0.811695	0.931927	0.625511
	Co11134	Co	0.749199	0.869246	0.874230
	Co11135	Co	0.811626	0.931953	0.876140
	C11136	C	0.771354	1.040405	0.923136
	C11137	C	0.822292	0.900777	0.924566
	C11138	C	0.801094	0.963260	0.576783
	C11139	C	0.851958	0.823491	0.578392
	C11140	C	0.801064	0.963298	0.924239
	C11141	C	0.851958	0.823435	0.923647
	C11142	C	0.771488	1.040510	0.577320
	C11143	C	0.822363	0.900772	0.577136
	C11144	C	0.798997	0.914513	0.675074
	C11145	C	0.861442	0.977018	0.673471
	C11146	C	0.761919	0.886642	0.824451
	C11147	C	0.824420	0.948944	0.825863
	C11148	C	0.761881	0.886713	0.673354
	C11149	C	0.824382	0.949360	0.674886
	C11150	C	0.798945	0.914573	0.825937
	C11151	C	0.861470	0.976956	0.824538
	C11152	C	0.774868	1.031660	1.000121
	C11153	C	0.825644	0.891548	0.500707
	C11154	C	0.797701	0.972326	1.000387
	C11155	C	0.848487	0.832352	0.501454
	C11156	C	0.794796	0.910723	0.750377
	C11157	C	0.857281	0.973228	0.749155
	C11158	C	0.766079	0.890494	0.748758
	C11159	C	0.828573	0.952859	0.750275
	C11160	C	0.780691	1.016731	1.000084
	C11161	C	0.831376	0.876436	0.500554
	C11162	C	0.791947	0.987418	1.000056
	C11163	C	0.842674	0.847266	0.501257
	C11164	C	0.787534	0.905468	0.749879
	C11165	C	0.850030	0.967817	0.749528
	C11166	C	0.773326	0.895842	0.749062
	C11167	C	0.835841	0.958136	0.750242
	C11168	C	0.783452	1.008834	0.944380
	C11169	C	0.834246	0.868813	1.058067
	C11170	C	0.788829	0.994281	0.494543
	C11171	C	0.839883	0.855084	0.557417
	C11172	C	0.788930	0.994626	0.944423
	C11173	C	0.839685	0.854519	1.057783
	C11174	C	0.783352	1.008511	0.494712
	C11175	C	0.834384	0.869254	0.556614
	C11176	C	0.783948	0.902873	0.740934
	C11177	C	0.846239	0.966687	0.726178
	C11178	C	0.776903	0.898469	0.758172
	C11179	C	0.839654	0.959256	0.773771
	C11180	C	0.776985	0.898176	0.740550
	C11181	C	0.839287	0.961937	0.726428
	C11182	C	0.783860	0.903220	0.758388
	C11183	C	0.846601	0.964038	0.773353
	N11184	N	0.766325	1.053482	0.952247
	N11185	N	0.817354	0.914107	0.953550
	N11186	N	0.805994	0.949853	0.548114
	N11187	N	0.856978	0.810434	0.548994
	N11188	N	0.806003	0.949964	0.953088
	N11189	N	0.856994	0.810410	0.953026
	N11190	N	0.766415	1.053445	0.547604
	N11191	N	0.817401	0.914018	0.548248
	N11192	N	0.805151	0.920282	0.703587
	N11193	N	0.867637	0.982694	0.701688
	N11194	N	0.755725	0.880994	0.795962
	N11195	N	0.818216	0.943356	0.797452
	N11196	N	0.755705	0.881022	0.702201
	N11197	N	0.818187	0.943641	0.703585
	N11198	N	0.805128	0.920298	0.797491
	N11199	N	0.867671	0.982655	0.795514
	H11200	H	0.897270	0.162779	0.348850
	H11201	H	0.948052	0.022847	0.349392
	H11202	H	0.925096	0.090530	0.148130
	H11203	H	0.975845	-0.049668	0.149767
	H11204	H	0.924869	0.090016	0.350118
	H11205	H	0.975877	-0.049336	0.348178
	H11206	H	0.897426	0.162861	0.150697
	H11207	H	0.948490	0.023641	0.147561
	H11208	H	0.922728	0.038490	0.100915
	H11209	H	0.985384	0.100332	0.103936
	H11210	H	0.888142	0.012611	0.394713
	H11211	H	0.950602	0.074793	0.397797
	H11212	H	0.887967	0.012429	0.099300
	H11213	H	0.950533	0.075432	0.101991
	H11214	H	0.922829	0.038035	0.396654
	H11215	H	0.985238	0.101255	0.399825
	H11216	H	0.906788	0.140042	0.386416
	H11217	H	0.956097	-0.003234	0.462948
	H11218	H	0.916403	0.115058	0.037669
	H11219	H	0.966896	-0.025608	-0.049990
	H11220	H	0.916425	0.114901	0.386137
	H11221	H	0.965784	-0.028332	0.463171
	H11222	H	0.906761	0.140324	0.038357
	H11223	H	0.957258	-0.000372	-0.050177
	H11224	H	0.912092	0.026511	0.247913
	H11225	H	0.974142	0.092154	0.264096
	H11226	H	0.898720	0.024345	0.247378
	H11227	H	0.961693	0.083900	0.237946
	H11228	H	0.899767	0.017928	0.247276
	H11229	H	0.961838	0.083479	0.264147
	H11230	H	0.911067	0.032798	0.247775
	H11231	H	0.974056	0.092498	0.237166
	Co11232	Co	0.999182	0.119085	0.125813
	Co11233	Co	0.936688	0.056866	0.123844
	Co11234	Co	0.874208	-0.005735	0.374125
	Co11235	Co	0.936613	0.056777	0.374066
	C11236	C	0.896419	0.165219	0.422869
	C11237	C	0.947197	0.025409	0.422233
	C11238	C	0.926017	0.088107	0.075122
	C11239	C	0.976813	-0.051770	0.076152
	C11240	C	0.925911	0.087822	0.422896
	C11241	C	0.976852	-0.051708	0.422022
	C11242	C	0.896488	0.165391	0.076755
	C11243	C	0.947473	0.025966	0.074845
	C11244	C	0.923946	0.039389	0.172719
	C11245	C	0.986476	0.101683	0.175723
	C11246	C	0.886934	0.011525	0.322890
	C11247	C	0.949405	0.073978	0.325713
	C11248	C	0.886848	0.011436	0.171723
	C11249	C	0.949367	0.074308	0.173836
	C11250	C	0.923980	0.039238	0.324371
	C11251	C	0.986428	0.102122	0.327518
	C11252	C	0.899897	0.156379	0.499916
	C11253	C	0.950712	0.016696	-0.001770
	C11254	C	0.922706	0.097095	0.499319
	C11255	C	0.973405	-0.042795	-0.001132
	C11256	C	0.919777	0.035596	0.248406
	C11257	C	0.982255	0.098259	0.251630
	C11258	C	0.891058	0.015247	0.246865
	C11259	C	0.953570	0.077864	0.249980
	C11260	C	0.905699	0.141410	0.499660
	C11261	C	0.956425	0.001509	-0.001985
	C11262	C	0.916961	0.112175	0.499332
	C11263	C	0.967605	-0.027845	-0.001502
	C11264	C	0.912518	0.030289	0.247834
	C11265	C	0.975009	0.092907	0.251275
	C11266	C	0.898303	0.020544	0.247012
	C11267	C	0.960840	0.083112	0.250742
	C11268	C	0.908746	0.134304	0.436102
	C11269	C	0.958654	-0.007622	0.478743
	C11270	C	0.914227	0.120279	0.020624
	C11271	C	0.964763	-0.020202	-0.028746
	C11272	C	0.914213	0.120113	0.435736
	C11273	C	0.964143	-0.021800	0.478817
	C11274	C	0.908785	0.134587	0.020823
	C11275	C	0.959325	-0.005914	-0.029149
	C11276	C	0.909187	0.026013	0.247639
	C11277	C	0.971424	0.090287	0.258392
	C11278	C	0.901648	0.024775	0.247372
	C11279	C	0.964424	0.085690	0.243613
	C11280	C	0.902229	0.021247	0.247432
	C11281	C	0.964483	0.085475	0.258300
	C11282	C	0.908606	0.029525	0.247612
	C11283	C	0.971371	0.090491	0.243757
	N11284	N	0.891360	0.178167	0.452518
	N11285	N	0.942344	0.038908	0.451196
	N11286	N	0.930925	0.074710	0.046432
	N11287	N	0.981927	-0.064646	0.046985
	N11288	N	0.930901	0.074546	0.451400
	N11289	N	0.981973	-0.064592	0.451324
	N11290	N	0.891388	0.178346	0.048027
	N11291	N	0.942513	0.039277	0.046493
	N11292	N	0.930142	0.045028	0.201219
	N11293	N	0.992673	0.107361	0.204473
	N11294	N	0.880733	0.005835	0.295271
	N11295	N	0.943182	0.068514	0.296623
	N11296	N	0.880664	0.005803	0.201245
	N11297	N	0.943150	0.068734	0.202437
	N11298	N	0.930160	0.044928	0.295550
	N11299	N	0.992640	0.107647	0.298561
	H11300	H	0.897350	0.163116	0.848529
	H11301	H	0.948078	0.023024	0.849229
	H11302	H	0.925358	0.090753	0.648170
	H11303	H	0.975933	-0.049102	0.650696
	H11304	H	0.925210	0.090679	0.849297
	H11305	H	0.976167	-0.048882	0.847865
	H11306	H	0.897367	0.162817	0.650874
	H11307	H	0.948294	0.023272	0.648175
	H11308	H	0.922752	0.038412	0.601620
	H11309	H	0.985200	0.101337	0.602947
	H11310	H	0.888166	0.012115	0.896508
	H11311	H	0.950586	0.075375	0.896545
	H11312	H	0.888015	0.012872	0.601638
	H11313	H	0.950614	0.074829	0.602217
	H11314	H	0.922796	0.038517	0.896950
	H11315	H	0.985449	0.100126	0.898061
	H11316	H	0.906409	0.139092	0.960245
	H11317	H	0.957147	-0.000819	1.046833
	H11318	H	0.915871	0.113660	0.612526
	H11319	H	0.967789	-0.023275	0.535385
	H11320	H	0.916008	0.113808	0.960206
	H11321	H	0.966740	-0.026109	1.047476
	H11322	H	0.906221	0.138722	0.613126
	H11323	H	0.958068	0.001690	0.535224
	H11324	H	0.911765	0.029096	0.749751
	H11325	H	0.974248	0.090932	0.764967
	H11326	H	0.899104	0.022003	0.749893
	H11327	H	0.961655	0.084967	0.735208
	H11328	H	0.899404	0.020628	0.749576
	H11329	H	0.961902	0.082481	0.764656
	H11330	H	0.911432	0.030562	0.749888
	H11331	H	0.974017	0.093320	0.735881
	Co11332	Co	0.999184	0.119433	0.625654
	Co11333	Co	0.936703	0.056804	0.623613
	Co11334	Co	0.874199	-0.005858	0.874313
	Co11335	Co	0.936648	0.056870	0.874282
	C11336	C	0.896450	0.165524	0.922372
	C11337	C	0.947240	0.025620	0.922277
	C11338	C	0.926147	0.088233	0.575531
	C11339	C	0.976901	-0.051591	0.576516
	C11340	C	0.926078	0.088199	0.922455
	C11341	C	0.976975	-0.051408	0.921872
	C11342	C	0.896458	0.165220	0.577272
	C11343	C	0.947332	0.025634	0.574843
	C11344	C	0.923959	0.039440	0.673434
	C11345	C	0.986460	0.102077	0.675144
	C11346	C	0.886939	0.011367	0.824675
	C11347	C	0.949387	0.074194	0.824666
	C11348	C	0.886883	0.011729	0.673651
	C11349	C	0.949423	0.073903	0.673896
	C11350	C	0.923977	0.039548	0.825034
	C11351	C	0.986567	0.101489	0.826267
	C11352	C	0.899957	0.156641	0.999297
	C11353	C	0.950598	0.016425	0.498522
	C11354	C	0.922725	0.097321	0.998737
	C11355	C	0.973399	-0.042888	0.499351
	C11356	C	0.919788	0.035772	0.749321
	C11357	C	0.982343	0.097985	0.750608
	C11358	C	0.891062	0.015397	0.749185
	C11359	C	0.953598	0.077759	0.749425
	C11360	C	0.905763	0.141742	0.999188
	C11361	C	0.956309	0.001259	0.498866
	C11362	C	0.917005	0.112419	0.998829
	C11363	C	0.967569	-0.027967	0.499169
	C11364	C	0.912523	0.030478	0.749792
	C11365	C	0.975073	0.092747	0.750520
	C11366	C	0.898329	0.020672	0.749628
	C11367	C	0.960843	0.083128	0.749918
	C11368	C	0.908552	0.133886	0.977221
	C11369	C	0.959254	-0.006176	1.025473
	C11370	C	0.913914	0.119364	0.562641
	C11371	C	0.965224	-0.019056	0.519347
	C11372	C	0.914013	0.119620	0.977333
	C11373	C	0.964688	-0.020459	1.025670
	C11374	C	0.908448	0.133583	0.563082
	C11375	C	0.959742	-0.004880	0.519314
	C11376	C	0.908997	0.027579	0.749944
	C11377	C	0.971494	0.089629	0.758841
	C11378	C	0.901872	0.023538	0.749968
	C11379	C	0.964394	0.086274	0.741744
	C11380	C	0.902050	0.022770	0.750024
	C11381	C	0.964525	0.084913	0.758249
	C11382	C	0.908810	0.028369	0.749850
	C11383	C	0.971372	0.090957	0.742251
	N11384	N	0.891384	0.178448	0.952242
	N11385	N	0.942354	0.039032	0.951580
	N11386	N	0.931034	0.074747	0.546308
	N11387	N	0.982002	-0.064526	0.547343
	N11388	N	0.930953	0.074752	0.951526
	N11389	N	0.982042	-0.064381	0.951554
	N11390	N	0.891389	0.178218	0.547934
	N11391	N	0.942429	0.039037	0.546065
	N11392	N	0.930157	0.045099	0.701599
	N11393	N	0.992662	0.107705	0.703683
	N11394	N	0.880741	0.005724	0.796152
	N11395	N	0.943190	0.068525	0.795811
	N11396	N	0.880687	0.005954	0.702107
	N11397	N	0.943222	0.068370	0.702061
	N11398	N	0.930172	0.045130	0.795924
	N11399	N	0.992739	0.107328	0.797991
	H11400	H	0.894865	0.257816	0.348737
	H11401	H	0.959852	0.225330	0.350068
	H11402	H	0.931791	0.271653	0.153015
	H11403	H	0.987543	0.152700	0.150115
	H11404	H	0.931698	0.271539	0.347950
	H11405	H	0.987604	0.153070	0.351533
	H11406	H	0.894939	0.258204	0.153449
	H11407	H	0.960091	0.225766	0.151561
	H11408	H	0.935286	0.231590	0.097646
	H11409	H	0.997691	0.293980	0.098033
	H11410	H	0.899160	0.211594	0.401606
	H11411	H	0.961704	0.273810	0.401609
	H11412	H	0.899191	0.211606	0.100183
	H11413	H	0.961602	0.274589	0.099334
	H11414	H	0.935331	0.231332	0.401835
	H11415	H	0.997835	0.293557	0.401456
	H11416	H	0.907152	0.260325	0.350451
	H11417	H	0.969183	0.202391	0.474632
	H11418	H	0.919756	0.266384	0.150932
	H11419	H	0.978171	0.175404	-0.014628
	H11420	H	0.919668	0.266885	0.350287
	H11421	H	0.978931	0.177471	0.475095
	H11422	H	0.907260	0.259931	0.151294
	H11423	H	0.968544	0.200635	-0.015240
	H11424	H	0.923913	0.221087	0.102853
	H11425	H	0.986309	0.284564	0.397299
	H11426	H	0.911226	0.216349	0.398329
	H11427	H	0.973839	0.277677	0.102736
	H11428	H	0.911328	0.215459	0.102654
	H11429	H	0.973672	0.278911	0.397716
	H11430	H	0.923846	0.222145	0.397361
	H11431	H	0.986419	0.283468	0.102325
	Co11432	Co	1.009912	0.319859	0.124589
	Co11433	Co	0.947440	0.257534	0.124935
	Co11434	Co	0.884914	0.194996	0.375616
	Co11435	Co	0.947399	0.257439	0.374995
	C11436	C	0.893613	0.258710	0.423252
	C11437	C	0.958967	0.227738	0.423566
	C11438	C	0.933063	0.271226	0.077995
	C11439	C	0.988487	0.150248	0.077068
	C11440	C	0.933035	0.271119	0.422180
	C11441	C	0.988554	0.150673	0.424398
	C11442	C	0.893671	0.258952	0.078802
	C11443	C	0.959074	0.227950	0.077365
	C11444	C	0.936262	0.233183	0.172173
	C11445	C	0.998766	0.295556	0.172545
	C11446	C	0.897904	0.211033	0.327549
	C11447	C	0.960450	0.273321	0.327389
	C11448	C	0.897924	0.211005	0.173495
	C11449	C	0.960407	0.273720	0.173229
	C11450	C	0.936302	0.233038	0.327387
	C11451	C	0.998798	0.295441	0.327386
	C11452	C	0.898318	0.257619	0.500739
	C11453	C	0.962421	0.218893	0.000243
	C11454	C	0.928404	0.270929	0.499886
	C11455	C	0.985187	0.159413	0.000506
	C11456	C	0.932280	0.227985	0.250014
	C11457	C	0.994761	0.290410	0.249970
	C11458	C	0.902412	0.213120	0.250718
	C11459	C	0.964931	0.275622	0.250339
	C11460	C	0.906062	0.259625	0.500639
	C11461	C	0.968215	0.203926	0.000422
	C11462	C	0.920783	0.267539	0.500328
	C11463	C	0.979462	0.174537	0.000732
	C11464	C	0.924959	0.222413	0.250048
	C11465	C	0.987445	0.284789	0.250153
	C11466	C	0.910078	0.215854	0.250525
	C11467	C	0.972601	0.278271	0.250315
	C11468	C	0.909844	0.261659	0.417117
	C11469	C	0.971220	0.196752	0.486405
	C11470	C	0.917041	0.265254	0.084485
	C11471	C	0.976316	0.181452	-0.008016
	C11472	C	0.916980	0.265431	0.416894
	C11473	C	0.976704	0.182638	0.486094
	C11474	C	0.909916	0.261487	0.084724
	C11475	C	0.970842	0.195691	-0.008146
	C11476	C	0.921181	0.220064	0.168089
	C11477	C	0.983623	0.283108	0.332310
	C11478	C	0.913923	0.217498	0.332507
	C11479	C	0.976513	0.279231	0.168111
	C11480	C	0.913972	0.216911	0.168253
	C11481	C	0.976428	0.279903	0.332486
	C11482	C	0.921133	0.220638	0.332423
	C11483	C	0.983708	0.282432	0.168007
	N11484	N	0.886650	0.261391	0.452115
	N11485	N	0.953884	0.240747	0.452506
	N11486	N	0.940018	0.270543	0.049212
	N11487	N	0.993402	0.136870	0.048509
	N11488	N	0.939995	0.270497	0.450587
	N11489	N	0.993513	0.137391	0.453374
	N11490	N	0.886704	0.261587	0.049779
	N11491	N	0.953988	0.240896	0.048132
	N11492	N	0.942026	0.241233	0.201452
	N11493	N	1.004534	0.303572	0.201653
	N11494	N	0.891284	0.207730	0.299000
	N11495	N	0.953803	0.270149	0.298750
	N11496	N	0.891292	0.207693	0.202051
	N11497	N	0.953792	0.270299	0.201878
	N11498	N	0.942045	0.241178	0.298021
	N11499	N	1.004547	0.303523	0.298066
	H11500	H	0.894922	0.257879	0.848971
	H11501	H	0.959677	0.224812	0.848973
	H11502	H	0.931751	0.271717	0.652033
	H11503	H	0.987770	0.153313	0.650151
	H11504	H	0.931719	0.271578	0.848209
	H11505	H	0.987669	0.152883	0.851179
	H11506	H	0.894851	0.258045	0.652922
	H11507	H	0.959700	0.225276	0.651278
	H11508	H	0.935307	0.231427	0.598520
	H11509	H	0.997767	0.293773	0.599376
	H11510	H	0.899207	0.211771	0.900959
	H11511	H	0.961652	0.274059	0.900341
	H11512	H	0.899142	0.211831	0.598747
	H11513	H	0.961636	0.274068	0.599120
	H11514	H	0.935281	0.231642	0.902155
	H11515	H	0.997792	0.293917	0.902452
	H11516	H	0.907138	0.260510	0.850832
	H11517	H	0.969492	0.203069	1.016456
	H11518	H	0.919748	0.266455	0.650743
	H11519	H	0.978477	0.176375	0.526838
	H11520	H	0.919679	0.266859	0.850320
	H11521	H	0.979138	0.177876	1.016069
	H11522	H	0.907289	0.260004	0.651180
	H11523	H	0.968738	0.201346	0.527050
	H11524	H	0.923931	0.221644	0.602454
	H11525	H	0.986475	0.283353	0.603122
	H11526	H	0.911220	0.216448	0.897486
	H11527	H	0.973582	0.279279	0.898078
	H11528	H	0.911330	0.215808	0.602431
	H11529	H	0.973864	0.277539	0.602757
	H11530	H	0.923845	0.222147	0.897887
	H11531	H	0.986221	0.284981	0.898605
	Co11532	Co	1.009949	0.319723	0.624981
	Co11533	Co	0.947409	0.257501	0.624822
	Co11534	Co	0.884941	0.195302	0.875714
	Co11535	Co	0.947413	0.257514	0.875297
	C11536	C	0.893654	0.258948	0.923503
	C11537	C	0.958874	0.227487	0.922887
	C11538	C	0.933051	0.271218	0.577378
	C11539	C	0.988644	0.150832	0.577111
	C11540	C	0.933039	0.271192	0.922781
	C11541	C	0.988563	0.150363	0.924215
	C11542	C	0.893630	0.258886	0.578543
	C11543	C	0.958884	0.227647	0.577719
	C11544	C	0.936289	0.233172	0.672899
	C11545	C	0.998741	0.295564	0.673369
	C11546	C	0.897991	0.211132	0.827334
	C11547	C	0.960426	0.273399	0.827061
	C11548	C	0.897976	0.211110	0.672793
	C11549	C	0.960415	0.273423	0.672926
	C11550	C	0.936262	0.233269	0.827762
	C11551	C	0.998771	0.295597	0.828007
	C11552	C	0.898343	0.257732	1.001021
	C11553	C	0.962382	0.218893	0.500836
	C11554	C	0.928408	0.271001	1.000465
	C11555	C	0.985252	0.159791	0.500743
	C11556	C	0.932300	0.228136	0.750452
	C11557	C	0.994745	0.290440	0.750948
	C11558	C	0.902464	0.213272	0.750050
	C11559	C	0.964914	0.275546	0.750103
	C11560	C	0.906093	0.259743	1.000986
	C11561	C	0.968194	0.203936	0.500985
	C11562	C	0.920788	0.267626	1.000676
	C11563	C	0.979493	0.174881	0.500762
	C11564	C	0.924956	0.222663	0.750152
	C11565	C	0.987422	0.284906	0.750996
	C11566	C	0.910136	0.216130	0.749996
	C11567	C	0.972589	0.278274	0.750259
	C11568	C	0.909878	0.261739	0.917216
	C11569	C	0.971384	0.197032	1.009310
	C11570	C	0.917053	0.265154	0.583975
	C11571	C	0.976488	0.182076	0.515336
	C11572	C	0.917003	0.265535	0.917094
	C11573	C	0.976848	0.182752	1.009464
	C11574	C	0.909915	0.261421	0.584021
	C11575	C	0.970983	0.196166	0.515439
	C11576	C	0.921198	0.220509	0.667668
	C11577	C	0.983715	0.282447	0.668414
	C11578	C	0.913945	0.217655	0.832225
	C11579	C	0.976370	0.280149	0.832869
	C11580	C	0.914014	0.217275	0.667698
	C11581	C	0.976527	0.279197	0.668119
	C11582	C	0.921129	0.220847	0.832574
	C11583	C	0.983566	0.283375	0.833250
	N11584	N	0.886685	0.261566	0.952400
	N11585	N	0.953852	0.240589	0.952229
	N11586	N	0.940008	0.270525	0.548672
	N11587	N	0.993544	0.137433	0.548157
	N11588	N	0.940001	0.270527	0.950812
	N11589	N	0.993446	0.136955	0.953378
	N11590	N	0.886673	0.261444	0.549849
	N11591	N	0.953845	0.240706	0.547949
	N11592	N	0.942048	0.241321	0.701978
	N11593	N	1.004522	0.303598	0.702182
	N11594	N	0.891363	0.207781	0.798672
	N11595	N	0.953796	0.270098	0.798434
	N11596	N	0.891344	0.207749	0.701606
	N11597	N	0.953760	0.270228	0.701464
	N11598	N	0.942017	0.241392	0.798538
	N11599	N	1.004513	0.303675	0.798546
	H11600	H	0.889623	0.341469	0.348194
	H11601	H	0.957425	0.319893	0.348344
	H11602	H	0.926405	0.355259	0.152928
	H11603	H	0.994275	0.334072	0.152509
	H11604	H	0.926458	0.355298	0.347637
	H11605	H	0.994316	0.333817	0.347668
	H11606	H	0.889534	0.341631	0.153308
	H11607	H	0.957457	0.320533	0.152815
	H11608	H	0.928974	0.315197	0.098644
	H11609	H	0.991440	0.377602	0.097063
	H11610	H	0.892329	0.298011	0.403102
	H11611	H	0.954967	0.360214	0.402272
	H11612	H	0.892252	0.298379	0.098626
	H11613	H	0.954773	0.360914	0.098346
	H11614	H	0.929024	0.315009	0.403019
	H11615	H	0.991524	0.377259	0.401375
	H11616	H	0.901576	0.347328	0.349773
	H11617	H	0.969851	0.321881	0.650300
	H11618	H	0.914047	0.352715	0.151577
	H11619	H	0.982277	0.328661	0.150007
	H11620	H	0.914112	0.353660	0.350126
	H11621	H	0.982357	0.328345	0.650447
	H11622	H	0.901589	0.346339	0.151242
	H11623	H	0.969768	0.322176	0.149596
	H11624	H	0.917009	0.308768	0.099764
	H11625	H	0.979510	0.371609	0.399943
	H11626	H	0.904298	0.304687	0.401555
	H11627	H	0.966797	0.366357	0.099717
	H11628	H	0.904318	0.304186	0.099943
	H11629	H	0.966802	0.367328	0.400335
	H11630	H	0.916987	0.309198	0.401461
	H11631	H	0.979524	0.371009	0.099176
	Co11632	Co	1.004433	0.400260	0.123245
	Co11633	Co	0.941902	0.337829	0.125012
	Co11634	Co	0.879373	0.275369	0.376735
	Co11635	Co	0.941963	0.337632	0.376437
	C11636	C	0.888261	0.342103	0.422970
	C11637	C	0.956170	0.320938	0.423044
	C11638	C	0.927660	0.354419	0.078152
	C11639	C	0.995580	0.333615	0.077653
	C11640	C	0.927701	0.354424	0.422735
	C11641	C	0.995620	0.333491	0.422221
	C11642	C	0.888234	0.342027	0.078285
	C11643	C	0.956181	0.321377	0.078478
	C11644	C	0.930074	0.316447	0.172990
	C11645	C	0.992580	0.378919	0.171631
	C11646	C	0.891247	0.296778	0.328598
	C11647	C	0.953798	0.359028	0.328275
	C11648	C	0.891218	0.296894	0.173468
	C11649	C	0.953687	0.359395	0.172988
	C11650	C	0.930102	0.316380	0.328124
	C11651	C	0.992618	0.378783	0.326883
	C11652	C	0.892932	0.342398	0.500232
	C11653	C	0.960842	0.320301	0.000773
	C11654	C	0.923003	0.355665	0.500184
	C11655	C	0.990937	0.333469	0.000159
	C11656	C	0.925789	0.312799	0.250633
	C11657	C	0.988280	0.375180	0.249276
	C11658	C	0.895530	0.300530	0.250976
	C11659	C	0.958040	0.362892	0.250360
	C11660	C	0.900552	0.345794	0.499995
	C11661	C	0.968597	0.322251	0.000405
	C11662	C	0.915282	0.353649	0.500096
	C11663	C	0.983297	0.330158	0.000444
	C11664	C	0.918189	0.309199	0.250654
	C11665	C	0.980677	0.371647	0.249453
	C11666	C	0.903129	0.304137	0.250792
	C11667	C	0.965633	0.366571	0.249867
	C11668	C	0.904299	0.348232	0.416571
	C11669	C	0.972492	0.323590	0.583894
	C11670	C	0.911410	0.351487	0.084373
	C11671	C	0.979563	0.327651	0.083722
	C11672	C	0.911438	0.352066	0.416590
	C11673	C	0.979646	0.327273	0.583747
	C11674	C	0.904277	0.347671	0.084492
	C11675	C	0.972425	0.323965	0.083580
	C11676	C	0.914293	0.307882	0.166786
	C11677	C	0.976799	0.370563	0.333233
	C11678	C	0.907005	0.305555	0.334406
	C11679	C	0.969512	0.367637	0.166264
	C11680	C	0.907020	0.305351	0.166934
	C11681	C	0.969517	0.368104	0.333394
	C11682	C	0.914288	0.308013	0.334459
	C11683	C	0.976800	0.370199	0.166142
	N11684	N	0.881317	0.342786	0.451313
	N11685	N	0.949236	0.323718	0.452203
	N11686	N	0.934599	0.351802	0.049448
	N11687	N	1.002538	0.332980	0.048986
	N11688	N	0.934644	0.351715	0.451586
	N11689	N	1.002567	0.332842	0.450632
	N11690	N	0.881262	0.342723	0.049614
	N11691	N	0.949231	0.323947	0.049423
	N11692	N	0.936332	0.322375	0.201864
	N11693	N	0.998817	0.384904	0.200509
	N11694	N	0.885039	0.290700	0.299685
	N11695	N	0.947570	0.353030	0.299463
	N11696	N	0.885012	0.290749	0.202544
	N11697	N	0.947498	0.353219	0.202354
	N11698	N	0.936339	0.322328	0.299202
	N11699	N	0.998844	0.384815	0.297708
	H11700	H	0.889584	0.341252	0.848483
	H11701	H	0.957439	0.320456	0.848512
	H11702	H	0.926440	0.355531	0.652640
	H11703	H	0.994301	0.334157	0.652073
	H11704	H	0.926377	0.355101	0.848860
	H11705	H	0.994242	0.333938	0.847325
	H11706	H	0.889632	0.341963	0.652573
	H11707	H	0.957501	0.320865	0.653143
	H11708	H	0.929012	0.315385	0.598296
	H11709	H	0.991572	0.377808	0.597173
	H11710	H	0.892448	0.298236	0.902532
	H11711	H	0.954999	0.360850	0.902811
	H11712	H	0.892388	0.298191	0.598476
	H11713	H	0.954897	0.360784	0.598443
	H11714	H	0.929108	0.315242	0.902541
	H11715	H	0.991739	0.377367	0.901592
	H11716	H	0.901532	0.346741	0.850444
	H11717	H	0.969701	0.322846	0.850712
	H11718	H	0.914218	0.352765	0.650125
	H11719	H	0.982165	0.329532	0.349983
	H11720	H	0.914083	0.353232	0.850793
	H11721	H	0.982165	0.329432	0.850777
	H11722	H	0.901715	0.346508	0.650719
	H11723	H	0.969709	0.322904	0.350526
	H11724	H	0.917035	0.309272	0.901134
	H11725	H	0.979593	0.371816	0.899982
	H11726	H	0.904442	0.303836	0.599470
	H11727	H	0.966980	0.366234	0.599272
	H11728	H	0.904305	0.304739	0.900247
	H11729	H	0.966881	0.367365	0.900115
	H11730	H	0.917120	0.308496	0.600173
	H11731	H	0.979699	0.370788	0.599168
	Co11732	Co	1.004414	0.400613	0.622986
	Co11733	Co	0.941968	0.338068	0.625056
	Co11734	Co	0.879387	0.275579	0.876927
	Co11735	Co	0.941969	0.338130	0.876194
	C11736	C	0.888237	0.341963	0.922958
	C11737	C	0.956182	0.321455	0.922831
	C11738	C	0.927700	0.354483	0.577888
	C11739	C	0.995626	0.333616	0.577561
	C11740	C	0.927668	0.354357	0.922988
	C11741	C	0.995556	0.333637	0.922208
	C11742	C	0.888278	0.342289	0.578145
	C11743	C	0.956209	0.321423	0.578410
	C11744	C	0.930128	0.316653	0.673331
	C11745	C	0.992652	0.379110	0.671735
	C11746	C	0.891323	0.296768	0.827867
	C11747	C	0.953886	0.359378	0.827874
	C11748	C	0.891298	0.296785	0.672749
	C11749	C	0.953816	0.359416	0.672733
	C11750	C	0.930178	0.316523	0.828123
	C11751	C	0.992732	0.378884	0.826785
	C11752	C	0.892889	0.342133	1.000571
	C11753	C	0.960896	0.320006	0.500609
	C11754	C	0.922953	0.355484	1.000562
	C11755	C	0.990964	0.333326	0.499855
	C11756	C	0.925834	0.312938	0.750775
	C11757	C	0.988404	0.375246	0.749303
	C11758	C	0.895613	0.300451	0.750241
	C11759	C	0.958150	0.362999	0.749999
	C11760	C	0.900506	0.345482	1.000638
	C11761	C	0.968641	0.321965	0.500386
	C11762	C	0.915216	0.353437	1.000672
	C11763	C	0.983364	0.329872	0.500133
	C11764	C	0.918247	0.309285	0.750760
	C11765	C	0.980814	0.371575	0.749353
	C11766	C	0.903205	0.304128	0.750108
	C11767	C	0.965767	0.366479	0.749637
	C11768	C	0.904271	0.347855	0.916957
	C11769	C	0.972384	0.324199	0.916952
	C11770	C	0.911497	0.351614	0.583694
	C11771	C	0.979551	0.327904	0.416786
	C11772	C	0.911409	0.351662	0.917084
	C11773	C	0.979497	0.328008	0.917168
	C11774	C	0.904351	0.347865	0.583635
	C11775	C	0.972415	0.324153	0.416996
	C11776	C	0.914339	0.308199	0.834229
	C11777	C	0.976903	0.370545	0.833172
	C11778	C	0.907107	0.305130	0.666549
	C11779	C	0.969683	0.367465	0.665996
	C11780	C	0.907060	0.305653	0.833786
	C11781	C	0.969623	0.368065	0.833238
	C11782	C	0.914388	0.307724	0.666928
	C11783	C	0.976947	0.370038	0.665676
	N11784	N	0.881259	0.342646	0.951580
	N11785	N	0.949222	0.324006	0.951915
	N11786	N	0.934650	0.351807	0.548966
	N11787	N	1.002579	0.332890	0.549021
	N11788	N	0.934602	0.351837	0.951723
	N11789	N	1.002530	0.332980	0.950697
	N11790	N	0.881320	0.342885	0.549901
	N11791	N	0.949264	0.324007	0.549599
	N11792	N	0.936346	0.322669	0.701901
	N11793	N	0.998854	0.385191	0.700321
	N11794	N	0.885061	0.290789	0.798977
	N11795	N	0.947637	0.353362	0.799326
	N11796	N	0.885072	0.290770	0.701997
	N11797	N	0.947590	0.353433	0.702088
	N11798	N	0.936372	0.322615	0.799246
	N11799	N	0.998921	0.385035	0.797525
	H11800	H	0.893281	0.515298	0.349274
	H11801	H	0.952086	0.404153	0.347695
	H11802	H	0.923392	0.449124	0.151477
	H11803	H	0.988950	0.417766	0.151765
	H11804	H	0.923428	0.449321	0.349463
	H11805	H	0.988881	0.417534	0.347092
	H11806	H	0.893268	0.515387	0.151310
	H11807	H	0.952050	0.404220	0.153037
	H11808	H	0.922136	0.401686	0.100275
	H11809	H	0.984595	0.464720	0.097909
	H11810	H	0.886035	0.381852	0.401740
	H11811	H	0.948537	0.444361	0.401168
	H11812	H	0.885964	0.381750	0.097525
	H11813	H	0.948469	0.444458	0.098390
	H11814	H	0.922138	0.401677	0.401652
	H11815	H	0.984723	0.463890	0.399529
	H11816	H	0.902800	0.492864	0.520362
	H11817	H	0.964168	0.408531	0.650461
	H11818	H	0.913436	0.470361	0.025841
	H11819	H	0.976692	0.415055	0.150127
	H11820	H	0.913271	0.469998	0.520515
	H11821	H	0.976690	0.414913	0.650001
	H11822	H	0.902946	0.493263	0.025863
	H11823	H	0.964176	0.408606	0.150594
	H11824	H	0.910119	0.396729	0.102057
	H11825	H	0.972644	0.458850	0.101633
	H11826	H	0.897315	0.392184	0.397803
	H11827	H	0.959841	0.455137	0.396644
	H11828	H	0.897502	0.391054	0.101842
	H11829	H	0.960042	0.453182	0.102112
	H11830	H	0.909939	0.397941	0.398341
	H11831	H	0.972458	0.460879	0.396613
	Co11832	Co	0.998916	0.481034	0.123889
	Co11833	Co	0.936370	0.418404	0.125679
	Co11834	Co	0.873905	0.355795	0.375341
	Co11835	Co	0.936362	0.418508	0.375942
	C11836	C	0.892306	0.517526	0.422865
	C11837	C	0.950739	0.404713	0.422569
	C11838	C	0.924391	0.447008	0.077414
	C11839	C	0.990239	0.416827	0.076924
	C11840	C	0.924395	0.447064	0.423460
	C11841	C	0.990162	0.416763	0.421721
	C11842	C	0.892322	0.517645	0.077359
	C11843	C	0.950752	0.404660	0.078545
	C11844	C	0.923371	0.402288	0.173617
	C11845	C	0.985835	0.465075	0.171699
	C11846	C	0.884991	0.380157	0.327671
	C11847	C	0.947513	0.442725	0.327332
	C11848	C	0.884981	0.380003	0.172698
	C11849	C	0.947480	0.442711	0.172610
	C11850	C	0.923349	0.402331	0.327996
	C11851	C	0.985918	0.464632	0.325995
	C11852	C	0.895995	0.509293	0.500052
	C11853	C	0.955404	0.404643	0.000906
	C11854	C	0.920677	0.455296	0.500471
	C11855	C	0.985523	0.417927	-0.000355
	C11856	C	0.918869	0.400086	0.250656
	C11857	C	0.981388	0.462634	0.249055
	C11858	C	0.889012	0.385198	0.249999
	C11859	C	0.951525	0.447791	0.249834
	C11860	C	0.902224	0.495586	0.499762
	C11861	C	0.963020	0.408072	0.000646
	C11862	C	0.914439	0.468987	0.500025
	C11863	C	0.977752	0.415937	0.000102
	C11864	C	0.911194	0.397357	0.250427
	C11865	C	0.973731	0.459851	0.249384
	C11866	C	0.896338	0.390755	0.249905
	C11867	C	0.958869	0.453290	0.249635
	C11868	C	0.905200	0.488277	0.511555
	C11869	C	0.966807	0.410119	0.583753
	C11870	C	0.911231	0.475591	0.015043
	C11871	C	0.973976	0.413819	0.083625
	C11872	C	0.911151	0.475362	0.511659
	C11873	C	0.973965	0.413806	0.583660
	C11874	C	0.905297	0.488531	0.014979
	C11875	C	0.966837	0.410078	0.083823
	C11876	C	0.907387	0.395631	0.167731
	C11877	C	0.969921	0.457963	0.167276
	C11878	C	0.900058	0.393184	0.332362
	C11879	C	0.962614	0.455871	0.331638
	C11880	C	0.900182	0.392459	0.167529
	C11881	C	0.962716	0.454778	0.167386
	C11882	C	0.907262	0.396410	0.332700
	C11883	C	0.969813	0.459103	0.331562
	N11884	N	0.886907	0.529585	0.452139
	N11885	N	0.943794	0.405495	0.451418
	N11886	N	0.929786	0.434803	0.048397
	N11887	N	0.997183	0.414277	0.047997
	N11888	N	0.929803	0.435031	0.452929
	N11889	N	0.997128	0.414299	0.449956
	N11890	N	0.886942	0.529766	0.048173
	N11891	N	0.943789	0.405350	0.050067
	N11892	N	0.929998	0.405714	0.202540
	N11893	N	0.992476	0.468360	0.200176
	N11894	N	0.879227	0.372098	0.298572
	N11895	N	0.941744	0.434689	0.298464
	N11896	N	0.879225	0.371970	0.202017
	N11897	N	0.941710	0.434705	0.201991
	N11898	N	0.929987	0.405723	0.299475
	N11899	N	0.992522	0.468173	0.297061
	H11900	H	0.893345	0.515357	0.849389
	H11901	H	0.952004	0.403906	0.848498
	H11902	H	0.923463	0.449541	0.651470
	H11903	H	0.988993	0.418068	0.651257
	H11904	H	0.923557	0.449347	0.849558
	H11905	H	0.988908	0.417492	0.847116
	H11906	H	0.893337	0.515372	0.650925
	H11907	H	0.952091	0.404230	0.652776
	H11908	H	0.922219	0.401214	0.598499
	H11909	H	0.984652	0.464416	0.598396
	H11910	H	0.886079	0.381648	0.902950
	H11911	H	0.948620	0.444079	0.902530
	H11912	H	0.886007	0.381839	0.599663
	H11913	H	0.948462	0.444628	0.598914
	H11914	H	0.922191	0.401706	0.901417
	H11915	H	0.984774	0.463669	0.901111
	H11916	H	0.903371	0.494280	0.975457
	H11917	H	0.964027	0.409315	0.850669
	H11918	H	0.913849	0.471589	0.479157
	H11919	H	0.976492	0.416199	0.350162
	H11920	H	0.913829	0.471383	0.975890
	H11921	H	0.976532	0.415713	0.849874
	H11922	H	0.903352	0.494525	0.478863
	H11923	H	0.964013	0.409812	0.350090
	H11924	H	0.910049	0.397112	0.602048
	H11925	H	0.972722	0.458809	0.602207
	H11926	H	0.897467	0.391733	0.898593
	H11927	H	0.959955	0.454338	0.897866
	H11928	H	0.897448	0.391452	0.602662
	H11929	H	0.960083	0.453216	0.602049
	H11930	H	0.910063	0.397664	0.898012
	H11931	H	0.972612	0.459998	0.897545
	Co11932	Co	0.998875	0.481018	0.623862
	Co11933	Co	0.936361	0.418576	0.625707
	Co11934	Co	0.873863	0.355713	0.875957
	Co11935	Co	0.936386	0.418326	0.875906
	C11936	C	0.892363	0.517602	0.923167
	C11937	C	0.950747	0.404383	0.923147
	C11938	C	0.924406	0.447169	0.577831
	C11939	C	0.990227	0.417026	0.576819
	C11940	C	0.924452	0.447130	0.923419
	C11941	C	0.990205	0.416702	0.921831
	C11942	C	0.892328	0.517606	0.577061
	C11943	C	0.950738	0.404724	0.578097
	C11944	C	0.923409	0.402098	0.672898
	C11945	C	0.985883	0.464938	0.672600
	C11946	C	0.885075	0.379926	0.828548
	C11947	C	0.947612	0.442404	0.828004
	C11948	C	0.885019	0.380124	0.673781
	C11949	C	0.947501	0.442740	0.673397
	C11950	C	0.923389	0.402286	0.827105
	C11951	C	0.985964	0.464530	0.826973
	C11952	C	0.896016	0.509376	1.000432
	C11953	C	0.955395	0.404841	0.500371
	C11954	C	0.920768	0.455311	1.000508
	C11955	C	0.985500	0.418033	0.499662
	C11956	C	0.918901	0.399993	0.750036
	C11957	C	0.981442	0.462460	0.749872
	C11958	C	0.889065	0.385116	0.751191
	C11959	C	0.951590	0.447580	0.750437
	C11960	C	0.902269	0.495610	1.000663
	C11961	C	0.963000	0.408258	0.500324
	C11962	C	0.914494	0.469001	1.000718
	C11963	C	0.977744	0.416077	0.500172
	C11964	C	0.911234	0.397263	0.750273
	C11965	C	0.973778	0.459596	0.749839
	C11966	C	0.896392	0.390664	0.750776
	C11967	C	0.958936	0.453004	0.750130
	C11968	C	0.905524	0.489066	0.986838
	C11969	C	0.966748	0.410512	0.916977
	C11970	C	0.911457	0.476282	0.488293
	C11971	C	0.973865	0.414566	0.416795
	C11972	C	0.911454	0.476125	0.986789
	C11973	C	0.973896	0.414226	0.916659
	C11974	C	0.905503	0.489216	0.488223
	C11975	C	0.966725	0.410822	0.416853
	C11976	C	0.907361	0.395873	0.667839
	C11977	C	0.969962	0.457868	0.667513
	C11978	C	0.900172	0.392878	0.833107
	C11979	C	0.962704	0.455252	0.832469
	C11980	C	0.900174	0.392624	0.668128
	C11981	C	0.962764	0.454622	0.667732
	C11982	C	0.907373	0.396085	0.832721
	C11983	C	0.969906	0.458452	0.832274
	N11984	N	0.886964	0.529748	0.952429
	N11985	N	0.943782	0.405254	0.951894
	N11986	N	0.929790	0.435072	0.548661
	N11987	N	0.997167	0.414525	0.547610
	N11988	N	0.929827	0.434913	0.952578
	N11989	N	0.997165	0.414135	0.950444
	N11990	N	0.886919	0.529679	0.547671
	N11991	N	0.943776	0.405529	0.549583
	N11992	N	0.930033	0.405561	0.701686
	N11993	N	0.992503	0.468344	0.701178
	N11994	N	0.879287	0.371955	0.799531
	N11995	N	0.941793	0.434548	0.799342
	N11996	N	0.879267	0.372025	0.703007
	N11997	N	0.941731	0.434711	0.702828
	N11998	N	0.930015	0.405630	0.798743
	N11999	N	0.992564	0.468109	0.798024
	H12000	H	0.890333	0.608917	0.349486
	H12001	H	0.955773	0.577873	0.347894
	H12002	H	0.927164	0.622778	0.152401
	H12003	H	0.986153	0.512496	0.150485
	H12004	H	0.927187	0.622807	0.348274
	H12005	H	0.985823	0.511645	0.347610
	H12006	H	0.890411	0.609103	0.152721
	H12007	H	0.955921	0.578090	0.150492
	H12008	H	0.930849	0.582373	0.098470
	H12009	H	0.993297	0.645233	0.097983
	H12010	H	0.894657	0.562890	0.401582
	H12011	H	0.957187	0.625415	0.401135
	H12012	H	0.894612	0.562979	0.099758
	H12013	H	0.957094	0.625826	0.098553
	H12014	H	0.930829	0.582601	0.401447
	H12015	H	0.993290	0.645197	0.401532
	H12016	H	0.902639	0.611228	0.350449
	H12017	H	0.965994	0.557392	0.560392
	H12018	H	0.915072	0.618224	-0.149913
	H12019	H	0.976685	0.534840	0.043268
	H12020	H	0.915139	0.617555	0.349919
	H12021	H	0.976482	0.534419	0.559763
	H12022	H	0.902608	0.611687	-0.149839
	H12023	H	0.966130	0.557496	0.043259
	H12024	H	0.919389	0.572641	0.102328
	H12025	H	0.981869	0.635439	0.101946
	H12026	H	0.906775	0.567282	0.398030
	H12027	H	0.969207	0.629746	0.397897
	H12028	H	0.906770	0.566909	0.103183
	H12029	H	0.969224	0.629880	0.102517
	H12030	H	0.919433	0.572756	0.398366
	H12031	H	0.981866	0.635454	0.397862
	Co12032	Co	1.005391	0.671431	0.125454
	Co12033	Co	0.942934	0.608666	0.125061
	Co12034	Co	0.880439	0.546272	0.375429
	Co12035	Co	0.942886	0.608851	0.374779
	C12036	C	0.889074	0.609744	0.423603
	C12037	C	0.954793	0.580114	0.422105
	C12038	C	0.928513	0.622323	0.078136
	C12039	C	0.987077	0.509934	0.076938
	C12040	C	0.928510	0.622372	0.422560
	C12041	C	0.986866	0.509468	0.421763
	C12042	C	0.889089	0.609875	0.078216
	C12043	C	0.954901	0.580170	0.076809
	C12044	C	0.931878	0.584136	0.172804
	C12045	C	0.994292	0.647016	0.172561
	C12046	C	0.893455	0.562337	0.327753
	C12047	C	0.955948	0.624813	0.327245
	C12048	C	0.893439	0.562398	0.173595
	C12049	C	0.955914	0.625037	0.172937
	C12050	C	0.931857	0.584247	0.327327
	C12051	C	0.994275	0.647012	0.327461
	C12052	C	0.893774	0.608793	0.501208
	C12053	C	0.958524	0.571720	-0.000281
	C12054	C	0.923870	0.622191	0.500533
	C12055	C	0.983305	0.517944	0.000177
	C12056	C	0.927856	0.579051	0.250090
	C12057	C	0.990277	0.641994	0.249861
	C12058	C	0.897947	0.564479	0.250750
	C12059	C	0.960406	0.627002	0.250232
	C12060	C	0.901509	0.610930	0.501057
	C12061	C	0.964761	0.557978	-0.000064
	C12062	C	0.916243	0.618779	0.500555
	C12063	C	0.977038	0.531549	0.000402
	C12064	C	0.920506	0.573475	0.250472
	C12065	C	0.982940	0.636416	0.249830
	C12066	C	0.905629	0.567164	0.250759
	C12067	C	0.968092	0.629868	0.250387
	C12068	C	0.905320	0.612708	0.417184
	C12069	C	0.968073	0.551838	0.533265
	C12070	C	0.912419	0.616782	-0.083222
	C12071	C	0.974168	0.539104	0.024367
	C12072	C	0.912460	0.616460	0.416898
	C12073	C	0.974034	0.538932	0.533284
	C12074	C	0.905281	0.613031	-0.083416
	C12075	C	0.968188	0.551958	0.024226
	C12076	C	0.916707	0.571456	0.168072
	C12077	C	0.979152	0.634386	0.167487
	C12078	C	0.909508	0.568486	0.333144
	C12079	C	0.971956	0.631116	0.332758
	C12080	C	0.909504	0.568341	0.168302
	C12081	C	0.971966	0.631118	0.167711
	C12082	C	0.916706	0.571624	0.333006
	C12083	C	0.979143	0.634330	0.332377
	N12084	N	0.882132	0.612130	0.452470
	N12085	N	0.949426	0.592226	0.451939
	N12086	N	0.935484	0.621549	0.049129
	N12087	N	0.992445	0.497739	0.047481
	N12088	N	0.935487	0.621848	0.450851
	N12089	N	0.992304	0.497438	0.451144
	N12090	N	0.882146	0.612249	0.049622
	N12091	N	0.949509	0.592265	0.047302
	N12092	N	0.937628	0.592309	0.201817
	N12093	N	1.000057	0.655095	0.201732
	N12094	N	0.886819	0.559010	0.298923
	N12095	N	0.949297	0.621546	0.298190
	N12096	N	0.886801	0.559076	0.201990
	N12097	N	0.949270	0.621657	0.201497
	N12098	N	0.937602	0.592442	0.298196
	N12099	N	1.000039	0.655092	0.298600
	H12100	H	0.890350	0.608974	0.848474
	H12101	H	0.955677	0.577523	0.849301
	H12102	H	0.927223	0.623008	0.653227
	H12103	H	0.986033	0.512189	0.650163
	H12104	H	0.927187	0.622798	0.847246
	H12105	H	0.985829	0.511682	0.849380
	H12106	H	0.890356	0.609100	0.653156
	H12107	H	0.955762	0.577586	0.650813
	H12108	H	0.930727	0.582629	0.598065
	H12109	H	0.993205	0.645391	0.598742
	H12110	H	0.894539	0.563219	0.902133
	H12111	H	0.957093	0.625201	0.901259
	H12112	H	0.894609	0.562980	0.599406
	H12113	H	0.957073	0.625699	0.599259
	H12114	H	0.930738	0.582836	0.902107
	H12115	H	0.993205	0.645448	0.902420
	H12116	H	0.902714	0.610942	1.150145
	H12117	H	0.965073	0.554785	0.956699
	H12118	H	0.915160	0.617913	0.651031
	H12119	H	0.975674	0.532184	0.437127
	H12120	H	0.915195	0.617594	1.150346
	H12121	H	0.975585	0.532045	0.957219
	H12122	H	0.902646	0.611485	0.651276
	H12123	H	0.965201	0.555088	0.437646
	H12124	H	0.919301	0.573158	0.602830
	H12125	H	0.981793	0.635586	0.602220
	H12126	H	0.906681	0.567564	0.898128
	H12127	H	0.969194	0.629708	0.898488
	H12128	H	0.906684	0.567450	0.602705
	H12129	H	0.969195	0.629651	0.601920
	H12130	H	0.919328	0.572931	0.897983
	H12131	H	0.981781	0.635540	0.898819
	Co12132	Co	1.005355	0.671303	0.625152
	Co12133	Co	0.942858	0.608671	0.624617
	Co12134	Co	0.880427	0.546104	0.875031
	Co12135	Co	0.942880	0.608684	0.874882
	C12136	C	0.889065	0.609840	0.923197
	C12137	C	0.954766	0.579865	0.922700
	C12138	C	0.928531	0.622504	0.578099
	C12139	C	0.986981	0.509763	0.576443
	C12140	C	0.928514	0.622306	0.922377
	C12141	C	0.986922	0.509600	0.922686
	C12142	C	0.889088	0.609860	0.578738
	C12143	C	0.954799	0.579986	0.576600
	C12144	C	0.931767	0.584287	0.672499
	C12145	C	0.994187	0.647046	0.672888
	C12146	C	0.893355	0.562371	0.827730
	C12147	C	0.955873	0.624725	0.827223
	C12148	C	0.893376	0.562375	0.673372
	C12149	C	0.955860	0.624928	0.672863
	C12150	C	0.931761	0.584433	0.827401
	C12151	C	0.994209	0.647002	0.827883
	C12152	C	0.893772	0.608868	1.000696
	C12153	C	0.958500	0.571808	0.499231
	C12154	C	0.923845	0.622233	1.000318
	C12155	C	0.983238	0.517795	0.499054
	C12156	C	0.927732	0.579339	0.750292
	C12157	C	0.990182	0.641955	0.750456
	C12158	C	0.897876	0.564481	0.750671
	C12159	C	0.960363	0.626924	0.750074
	C12160	C	0.901503	0.610969	1.000285
	C12161	C	0.964747	0.558030	0.499206
	C12162	C	0.916210	0.618937	1.000351
	C12163	C	0.976977	0.531463	0.499122
	C12164	C	0.920398	0.573888	0.750723
	C12165	C	0.982862	0.636379	0.750475
	C12166	C	0.905521	0.567426	0.750646
	C12167	C	0.968034	0.629695	0.750210
	C12168	C	0.905352	0.612628	1.083683
	C12169	C	0.967617	0.550425	0.975748
	C12170	C	0.912479	0.616573	0.584322
	C12171	C	0.973614	0.537682	0.464449
	C12172	C	0.912491	0.616432	1.083812
	C12173	C	0.973571	0.537542	0.975909
	C12174	C	0.905337	0.612810	0.584603
	C12175	C	0.967656	0.550579	0.464716
	C12176	C	0.916596	0.571907	0.668336
	C12177	C	0.979079	0.634291	0.667660
	C12178	C	0.909393	0.568720	0.832877
	C12179	C	0.971884	0.631046	0.832900
	C12180	C	0.909386	0.568777	0.668150
	C12181	C	0.971885	0.631030	0.667525
	C12182	C	0.916601	0.571907	0.832993
	C12183	C	0.979077	0.634305	0.833140
	N12184	N	0.882125	0.612196	0.952164
	N12185	N	0.949428	0.592080	0.951968
	N12186	N	0.935499	0.621895	0.549278
	N12187	N	0.992372	0.497633	0.547333
	N12188	N	0.935483	0.621584	0.951043
	N12189	N	0.992341	0.497510	0.951581
	N12190	N	0.882145	0.612157	0.549996
	N12191	N	0.949420	0.592114	0.547465
	N12192	N	0.937525	0.592390	0.701380
	N12193	N	0.999944	0.655138	0.701959
	N12194	N	0.886745	0.558972	0.798781
	N12195	N	0.949252	0.621415	0.798392
	N12196	N	0.886756	0.558900	0.701752
	N12197	N	0.949236	0.621531	0.701347
	N12198	N	0.937521	0.592463	0.798044
	N12199	N	0.999970	0.655088	0.798627
	H12200	H	0.884435	0.696025	0.348530
	H12201	H	0.952862	0.671431	0.347517
	H12202	H	0.921804	0.706285	0.152072
	H12203	H	0.989666	0.685717	0.152462
	H12204	H	0.921779	0.705963	0.347885
	H12205	H	0.989681	0.685309	0.348077
	H12206	H	0.884553	0.696572	0.153485
	H12207	H	0.952902	0.671939	0.152930
	H12208	H	0.924274	0.666324	0.097949
	H12209	H	0.986870	0.728581	0.097569
	H12210	H	0.887584	0.649207	0.403526
	H12211	H	0.950170	0.711664	0.402395
	H12212	H	0.887517	0.649287	0.098914
	H12213	H	0.950127	0.711946	0.098755
	H12214	H	0.924397	0.665636	0.401692
	H12215	H	0.986839	0.728509	0.402251
	H12216	H	0.896768	0.698647	0.349278
	H12217	H	0.965142	0.673892	0.350130
	H12218	H	0.909542	0.703614	0.151353
	H12219	H	0.977586	0.680872	-0.150186
	H12220	H	0.909434	0.703888	0.348809
	H12221	H	0.977598	0.680696	0.350482
	H12222	H	0.896885	0.698506	0.151681
	H12223	H	0.965137	0.674012	-0.149887
	H12224	H	0.912157	0.660214	0.099297
	H12225	H	0.974794	0.722425	0.098816
	H12226	H	0.899589	0.655617	0.401086
	H12227	H	0.962081	0.718507	0.401072
	H12228	H	0.899471	0.655786	0.100394
	H12229	H	0.962115	0.717705	0.099687
	H12230	H	0.912238	0.660127	0.400768
	H12231	H	0.974823	0.722793	0.400429
	Co12232	Co	0.999808	0.751157	0.124680
	Co12233	Co	0.937364	0.688552	0.124613
	Co12234	Co	0.874789	0.625926	0.376463
	Co12235	Co	0.937335	0.688333	0.375692
	C12236	C	0.883184	0.697146	0.423149
	C12237	C	0.951598	0.672272	0.422540
	C12238	C	0.923090	0.705285	0.077496
	C12239	C	0.990985	0.685243	0.078093
	C12240	C	0.923057	0.704875	0.422258
	C12241	C	0.990953	0.684910	0.422664
	C12242	C	0.883236	0.697430	0.078768
	C12243	C	0.951605	0.672442	0.078286
	C12244	C	0.925380	0.667495	0.172026
	C12245	C	0.987943	0.729822	0.172255
	C12246	C	0.886523	0.647774	0.328276
	C12247	C	0.949042	0.710384	0.328315
	C12248	C	0.886493	0.647883	0.173399
	C12249	C	0.949030	0.710469	0.173257
	C12250	C	0.925435	0.667161	0.327032
	C12251	C	0.987929	0.729803	0.327533
	C12252	C	0.887915	0.696157	0.500495
	C12253	C	0.956285	0.671212	0.000577
	C12254	C	0.918338	0.706005	0.499904
	C12255	C	0.986325	0.684995	0.000238
	C12256	C	0.921066	0.663818	0.249533
	C12257	C	0.983615	0.726275	0.249868
	C12258	C	0.890772	0.651649	0.250811
	C12259	C	0.953318	0.714181	0.250834
	C12260	C	0.895675	0.697890	0.500175
	C12261	C	0.964017	0.673377	0.000383
	C12262	C	0.910585	0.704218	0.499804
	C12263	C	0.978716	0.681554	-0.000003
	C12264	C	0.913452	0.660371	0.249797
	C12265	C	0.976000	0.722819	0.249715
	C12266	C	0.898349	0.655378	0.250572
	C12267	C	0.960916	0.717874	0.250528
	C12268	C	0.899503	0.699681	0.416072
	C12269	C	0.967788	0.675387	0.417055
	C12270	C	0.906811	0.702676	0.084433
	C12271	C	0.974929	0.679414	-0.083393
	C12272	C	0.906730	0.702684	0.415980
	C12273	C	0.974907	0.679269	0.416970
	C12274	C	0.899573	0.699663	0.084589
	C12275	C	0.967804	0.675461	-0.083267
	C12276	C	0.909523	0.659122	0.166568
	C12277	C	0.972092	0.721452	0.165928
	C12278	C	0.902277	0.656683	0.334042
	C12279	C	0.964805	0.719349	0.334109
	C12280	C	0.902228	0.656714	0.166722
	C12281	C	0.964818	0.718964	0.166485
	C12282	C	0.909563	0.659150	0.333555
	C12283	C	0.972100	0.721699	0.333572
	N12284	N	0.876263	0.700001	0.452333
	N12285	N	0.944659	0.674702	0.451383
	N12286	N	0.930021	0.702462	0.048591
	N12287	N	0.997943	0.684409	0.049311
	N12288	N	0.929989	0.702235	0.451304
	N12289	N	0.997915	0.684269	0.451225
	N12290	N	0.876294	0.700006	0.049861
	N12291	N	0.944657	0.674756	0.049196
	N12292	N	0.931654	0.673238	0.200773
	N12293	N	0.994212	0.735644	0.201443
	N12294	N	0.880347	0.641475	0.299633
	N12295	N	0.942858	0.704084	0.299166
	N12296	N	0.880337	0.641499	0.202289
	N12297	N	0.942862	0.704139	0.202152
	N12298	N	0.931676	0.673070	0.298373
	N12299	N	0.994206	0.735597	0.298740
	H12300	H	0.884546	0.696366	0.848709
	H12301	H	0.952901	0.671015	0.848786
	H12302	H	0.921745	0.705602	0.652584
	H12303	H	0.989669	0.685610	0.652925
	H12304	H	0.921784	0.705484	0.847594
	H12305	H	0.989700	0.685431	0.847500
	H12306	H	0.884545	0.696772	0.652955
	H12307	H	0.952839	0.671387	0.652499
	H12308	H	0.924257	0.665865	0.597455
	H12309	H	0.986814	0.728258	0.597621
	H12310	H	0.887619	0.649072	0.902401
	H12311	H	0.949994	0.711713	0.901797
	H12312	H	0.887536	0.649416	0.598663
	H12313	H	0.949929	0.711854	0.597796
	H12314	H	0.924303	0.665741	0.902956
	H12315	H	0.986742	0.728387	0.901882
	H12316	H	0.896789	0.699006	0.849716
	H12317	H	0.965183	0.673759	1.150632
	H12318	H	0.909482	0.703566	0.650867
	H12319	H	0.977612	0.680249	0.651316
	H12320	H	0.909408	0.704268	0.849645
	H12321	H	0.977713	0.680223	1.150158
	H12322	H	0.896834	0.698393	0.651250
	H12323	H	0.965157	0.673678	0.651006
	H12324	H	0.912228	0.659967	0.599896
	H12325	H	0.974697	0.722639	0.598777
	H12326	H	0.899450	0.656242	0.901658
	H12327	H	0.961936	0.718585	0.900298
	H12328	H	0.899517	0.655747	0.600218
	H12329	H	0.961997	0.718011	0.598716
	H12330	H	0.912214	0.660510	0.901083
	H12331	H	0.974670	0.722936	0.900079
	Co12332	Co	0.999830	0.750683	0.624534
	Co12333	Co	0.937301	0.688238	0.624495
	Co12334	Co	0.874759	0.625912	0.876592
	Co12335	Co	0.937310	0.688146	0.875564
	C12336	C	0.883238	0.697391	0.923409
	C12337	C	0.951593	0.672047	0.922923
	C12338	C	0.923044	0.704798	0.577788
	C12339	C	0.990974	0.685123	0.578094
	C12340	C	0.923062	0.704805	0.922393
	C12341	C	0.990998	0.685069	0.922503
	C12342	C	0.883242	0.697635	0.578542
	C12343	C	0.951575	0.672196	0.577717
	C12344	C	0.925377	0.667137	0.672729
	C12345	C	0.987880	0.729706	0.672302
	C12346	C	0.886465	0.647858	0.828578
	C12347	C	0.948932	0.710398	0.827258
	C12348	C	0.886438	0.647979	0.673359
	C12349	C	0.948927	0.710361	0.672413
	C12350	C	0.925401	0.667096	0.828121
	C12351	C	0.987850	0.729771	0.827251
	C12352	C	0.887957	0.696262	1.000973
	C12353	C	0.956269	0.671145	0.500282
	C12354	C	0.918358	0.706200	1.000015
	C12355	C	0.986317	0.684827	0.500569
	C12356	C	0.921041	0.663711	0.750502
	C12357	C	0.983513	0.726296	0.749699
	C12358	C	0.890725	0.651786	0.751057
	C12359	C	0.953194	0.714262	0.749697
	C12360	C	0.895708	0.698066	1.000709
	C12361	C	0.963996	0.673336	0.500662
	C12362	C	0.910610	0.704468	1.000425
	C12363	C	0.978689	0.681449	0.500716
	C12364	C	0.913405	0.660404	0.750689
	C12365	C	0.975858	0.722984	0.749480
	C12366	C	0.898304	0.655617	0.751029
	C12367	C	0.960778	0.718038	0.749399
	C12368	C	0.899505	0.699907	0.916700
	C12369	C	0.967852	0.675213	1.083898
	C12370	C	0.906761	0.702491	0.583827
	C12371	C	0.974918	0.679064	0.584455
	C12372	C	0.906735	0.702974	0.916724
	C12373	C	0.974985	0.679054	1.083555
	C12374	C	0.899532	0.699468	0.584189
	C12375	C	0.967789	0.675265	0.584254
	C12376	C	0.909514	0.659146	0.666929
	C12377	C	0.971979	0.721654	0.665758
	C12378	C	0.902176	0.657090	0.834716
	C12379	C	0.964668	0.719535	0.833246
	C12380	C	0.902216	0.656746	0.667295
	C12381	C	0.964696	0.719178	0.665613
	C12382	C	0.909478	0.659410	0.834410
	C12383	C	0.971964	0.721852	0.833270
	N12384	N	0.876304	0.700070	0.952239
	N12385	N	0.944641	0.674500	0.951619
	N12386	N	0.929988	0.702217	0.548817
	N12387	N	0.997931	0.684391	0.549491
	N12388	N	0.929992	0.702187	0.951023
	N12389	N	0.997948	0.684389	0.951247
	N12390	N	0.876281	0.700161	0.549898
	N12391	N	0.944631	0.674606	0.548885
	N12392	N	0.931661	0.672935	0.701734
	N12393	N	0.994167	0.735407	0.701309
	N12394	N	0.880330	0.641419	0.799388
	N12395	N	0.942781	0.703922	0.798712
	N12396	N	0.880308	0.641469	0.702197
	N12397	N	0.942773	0.703910	0.701409
	N12398	N	0.931696	0.672791	0.799093
	N12399	N	0.994131	0.735500	0.798553
	H12400	H	0.879060	0.779438	0.348558
	H12401	H	0.947038	0.759241	0.347135
	H12402	H	0.915851	0.793753	0.152540
	H12403	H	0.984252	0.768383	0.152034
	H12404	H	0.915930	0.793343	0.347643
	H12405	H	0.984333	0.768175	0.347552
	H12406	H	0.879070	0.779835	0.153262
	H12407	H	0.946992	0.759027	0.152786
	H12408	H	0.918629	0.753317	0.098285
	H12409	H	0.981073	0.815694	0.097680
	H12410	H	0.882037	0.736087	0.402859
	H12411	H	0.944464	0.798813	0.402052
	H12412	H	0.881988	0.736418	0.098588
	H12413	H	0.944401	0.798870	0.097530
	H12414	H	0.918734	0.753015	0.402387
	H12415	H	0.981248	0.815148	0.401515
	H12416	H	0.891133	0.784658	0.349496
	H12417	H	0.959412	0.761264	0.650394
	H12418	H	0.903620	0.790714	0.151027
	H12419	H	0.971929	0.766293	-0.151032
	H12420	H	0.903584	0.791371	0.349440
	H12421	H	0.972053	0.766222	0.650422
	H12422	H	0.891157	0.784181	0.150995
	H12423	H	0.959314	0.761210	-0.151172
	H12424	H	0.906743	0.746639	0.100164
	H12425	H	0.969190	0.809221	0.400335
	H12426	H	0.894038	0.742338	0.401688
	H12427	H	0.956500	0.804626	0.099055
	H12428	H	0.894069	0.741936	0.099835
	H12429	H	0.956531	0.804658	0.400425
	H12430	H	0.906785	0.746813	0.401490
	H12431	H	0.969234	0.808783	0.098905
	Co12432	Co	0.993921	0.839025	0.123672
	Co12433	Co	0.931406	0.776562	0.124621
	Co12434	Co	0.868968	0.713903	0.376428
	Co12435	Co	0.931508	0.776314	0.375588
	C12436	C	0.877767	0.779970	0.423212
	C12437	C	0.945812	0.760123	0.422069
	C12438	C	0.917120	0.792765	0.077726
	C12439	C	0.985557	0.767523	0.077249
	C12440	C	0.917246	0.792502	0.422500
	C12441	C	0.985609	0.767432	0.422187
	C12442	C	0.877764	0.780105	0.078722
	C12443	C	0.945721	0.759953	0.078214
	C12444	C	0.919739	0.754569	0.172659
	C12445	C	0.982217	0.817078	0.171877
	C12446	C	0.880927	0.734893	0.328306
	C12447	C	0.943358	0.797558	0.327330
	C12448	C	0.880922	0.735024	0.173094
	C12449	C	0.943342	0.797545	0.172528
	C12450	C	0.919797	0.754510	0.327741
	C12451	C	0.982293	0.816809	0.327025
	C12452	C	0.882462	0.780197	0.500782
	C12453	C	0.950431	0.758683	0.000647
	C12454	C	0.912531	0.793635	0.499923
	C12455	C	0.980861	0.768593	-0.000444
	C12456	C	0.915501	0.750711	0.250515
	C12457	C	0.977981	0.813070	0.249496
	C12458	C	0.885243	0.738464	0.250891
	C12459	C	0.947706	0.800958	0.249743
	C12460	C	0.890065	0.783595	0.500520
	C12461	C	0.958191	0.760426	0.000335
	C12462	C	0.904777	0.791537	0.500152
	C12463	C	0.973077	0.766780	-0.000239
	C12464	C	0.907912	0.746930	0.250884
	C12465	C	0.970393	0.809293	0.249612
	C12466	C	0.892849	0.741912	0.250988
	C12467	C	0.955322	0.804376	0.249592
	C12468	C	0.893803	0.785930	0.416584
	C12469	C	0.962119	0.762319	0.583614
	C12470	C	0.900931	0.789408	0.084230
	C12471	C	0.969214	0.765270	-0.084121
	C12472	C	0.900931	0.789799	0.416364
	C12473	C	0.969333	0.765285	0.583604
	C12474	C	0.893807	0.785591	0.084210
	C12475	C	0.961993	0.762233	-0.083876
	C12476	C	0.904013	0.745628	0.167100
	C12477	C	0.966505	0.808100	0.333381
	C12478	C	0.896749	0.743285	0.334620
	C12479	C	0.959222	0.805546	0.166075
	C12480	C	0.896745	0.743078	0.166978
	C12481	C	0.959224	0.805648	0.333422
	C12482	C	0.904040	0.745667	0.334745
	C12483	C	0.966516	0.807876	0.165917
	N12484	N	0.870814	0.780563	0.452215
	N12485	N	0.938857	0.762631	0.451144
	N12486	N	0.924069	0.790279	0.048960
	N12487	N	0.992507	0.764945	0.048439
	N12488	N	0.924200	0.790076	0.451276
	N12489	N	0.992556	0.764757	0.451167
	N12490	N	0.870802	0.780630	0.050319
	N12491	N	0.938785	0.762634	0.049217
	N12492	N	0.925907	0.760935	0.201666
	N12493	N	0.988404	0.823338	0.200553
	N12494	N	0.874662	0.729084	0.299498
	N12495	N	0.937071	0.791795	0.298564
	N12496	N	0.874663	0.729118	0.202042
	N12497	N	0.937063	0.791840	0.201428
	N12498	N	0.925935	0.760879	0.298448
	N12499	N	0.988453	0.823208	0.297800
	H12500	H	0.879096	0.778901	0.848721
	H12501	H	0.947029	0.758909	0.848454
	H12502	H	0.915920	0.793482	0.651439
	H12503	H	0.984350	0.768448	0.651758
	H12504	H	0.915855	0.793173	0.848179
	H12505	H	0.984304	0.768327	0.847092
	H12506	H	0.879112	0.779460	0.653459
	H12507	H	0.947094	0.759061	0.651910
	H12508	H	0.918688	0.753223	0.598137
	H12509	H	0.981172	0.815460	0.597043
	H12510	H	0.882107	0.736080	0.903173
	H12511	H	0.944426	0.799079	0.902183
	H12512	H	0.881923	0.736735	0.599046
	H12513	H	0.944464	0.798929	0.598174
	H12514	H	0.918778	0.752804	0.901767
	H12515	H	0.981186	0.815591	0.901737
	H12516	H	0.891063	0.784859	0.850062
	H12517	H	0.959397	0.760530	1.151299
	H12518	H	0.903690	0.790746	0.651020
	H12519	H	0.972041	0.766372	0.348634
	H12520	H	0.903529	0.791455	0.850285
	H12521	H	0.972044	0.765782	1.150519
	H12522	H	0.891176	0.784344	0.650895
	H12523	H	0.959412	0.761321	0.348823
	H12524	H	0.906794	0.746386	0.599510
	H12525	H	0.969258	0.809114	0.900098
	H12526	H	0.894048	0.742669	0.901041
	H12527	H	0.956471	0.805088	0.599252
	H12528	H	0.894079	0.741870	0.599666
	H12529	H	0.956564	0.804504	0.900594
	H12530	H	0.906777	0.747004	0.900718
	H12531	H	0.969198	0.809342	0.598865
	Co12532	Co	0.993975	0.838764	0.623869
	Co12533	Co	0.931539	0.776423	0.624626
	Co12534	Co	0.868969	0.713975	0.876863
	Co12535	Co	0.931461	0.776491	0.875492
	C12536	C	0.877763	0.779656	0.923334
	C12537	C	0.945743	0.759836	0.922906
	C12538	C	0.917236	0.792582	0.577306
	C12539	C	0.985621	0.767607	0.577375
	C12540	C	0.917118	0.792410	0.922505
	C12541	C	0.985565	0.767400	0.921792
	C12542	C	0.877808	0.779985	0.578535
	C12543	C	0.945823	0.759919	0.577248
	C12544	C	0.919813	0.754566	0.672752
	C12545	C	0.982297	0.816841	0.671957
	C12546	C	0.880966	0.734866	0.828391
	C12547	C	0.943336	0.797661	0.827526
	C12548	C	0.880872	0.735233	0.673659
	C12549	C	0.943351	0.797678	0.672541
	C12550	C	0.919832	0.754441	0.827523
	C12551	C	0.982270	0.817005	0.827018
	C12552	C	0.882414	0.780106	1.000913
	C12553	C	0.950502	0.758965	0.499670
	C12554	C	0.912445	0.793595	1.000248
	C12555	C	0.980943	0.768674	0.499785
	C12556	C	0.915544	0.750671	0.750016
	C12557	C	0.977994	0.813189	0.749314
	C12558	C	0.885271	0.738522	0.750853
	C12559	C	0.947675	0.801169	0.749923
	C12560	C	0.890024	0.783461	1.000635
	C12561	C	0.958279	0.760694	0.499818
	C12562	C	0.904713	0.791522	1.000451
	C12563	C	0.973185	0.766932	0.499840
	C12564	C	0.907953	0.746935	0.750248
	C12565	C	0.970384	0.809550	0.749333
	C12566	C	0.892889	0.741945	0.750561
	C12567	C	0.955317	0.804599	0.749941
	C12568	C	0.893756	0.785951	0.916982
	C12569	C	0.962070	0.761817	1.084131
	C12570	C	0.900993	0.789458	0.584040
	C12571	C	0.969345	0.765323	0.415744
	C12572	C	0.900874	0.789800	0.916830
	C12573	C	0.969283	0.764873	1.083816
	C12574	C	0.893847	0.785712	0.584062
	C12575	C	0.962125	0.762349	0.415836
	C12576	C	0.904074	0.745418	0.666520
	C12577	C	0.966508	0.808192	0.833224
	C12578	C	0.896759	0.743506	0.834158
	C12579	C	0.959207	0.805894	0.666169
	C12580	C	0.896786	0.742937	0.666693
	C12581	C	0.959239	0.805634	0.833536
	C12582	C	0.904045	0.745930	0.834118
	C12583	C	0.966487	0.808340	0.665743
	N12584	N	0.870791	0.780373	0.952164
	N12585	N	0.938798	0.762591	0.951482
	N12586	N	0.924193	0.790149	0.548963
	N12587	N	0.992567	0.764840	0.548884
	N12588	N	0.924062	0.790070	0.951200
	N12589	N	0.992507	0.764798	0.950967
	N12590	N	0.870851	0.780636	0.550326
	N12591	N	0.938877	0.762603	0.548755
	N12592	N	0.925984	0.760904	0.701650
	N12593	N	0.988489	0.823092	0.701002
	N12594	N	0.874680	0.729200	0.799770
	N12595	N	0.937051	0.791884	0.798680
	N12596	N	0.874615	0.729438	0.702477
	N12597	N	0.937086	0.791850	0.701451
	N12598	N	0.926032	0.760703	0.798623
	N12599	N	0.988476	0.823163	0.797966
	H12600	H	0.885795	0.960757	0.350101
	H12601	H	0.941608	0.842065	0.347296
	H12602	H	0.913509	0.888169	0.150312
	H12603	H	0.978396	0.856043	0.151674
	H12604	H	0.913311	0.887902	0.349367
	H12605	H	0.978375	0.855561	0.347402
	H12606	H	0.885607	0.960399	0.148791
	H12607	H	0.941613	0.841878	0.152100
	H12608	H	0.911686	0.839371	0.098130
	H12609	H	0.974245	0.901733	0.097712
	H12610	H	0.875536	0.819420	0.403265
	H12611	H	0.938074	0.881737	0.401832
	H12612	H	0.875496	0.819683	0.099215
	H12613	H	0.938008	0.882092	0.097763
	H12614	H	0.911634	0.839306	0.400651
	H12615	H	0.974192	0.901794	0.399962
	H12616	H	0.894504	0.936241	0.469599
	H12617	H	0.953701	0.846533	0.350089
	H12618	H	0.904568	0.912029	-0.050947
	H12619	H	0.966090	0.853454	-0.151233
	H12620	H	0.904107	0.911004	0.469693
	H12621	H	0.966165	0.852995	0.349579
	H12622	H	0.894758	0.936867	-0.050733
	H12623	H	0.953591	0.846959	-0.151429
	H12624	H	0.899579	0.834682	0.102125
	H12625	H	0.962068	0.897270	0.101094
	H12626	H	0.886913	0.829979	0.398567
	H12627	H	0.949550	0.891598	0.397461
	H12628	H	0.886979	0.828877	0.102941
	H12629	H	0.949489	0.891364	0.101958
	H12630	H	0.899548	0.835685	0.397696
	H12631	H	0.962175	0.897372	0.396695
	Co12632	Co	0.988428	0.918623	0.123827
	Co12633	Co	0.925934	0.855932	0.124588
	Co12634	Co	0.863407	0.793616	0.376528
	Co12635	Co	0.925891	0.855939	0.374816
	C12636	C	0.884879	0.963179	0.422709
	C12637	C	0.940291	0.842460	0.422353
	C12638	C	0.914425	0.885784	0.076827
	C12639	C	0.979668	0.855148	0.076757
	C12640	C	0.914333	0.885605	0.422837
	C12641	C	0.979683	0.854970	0.422425
	C12642	C	0.884724	0.962827	0.075990
	C12643	C	0.940280	0.842296	0.077457
	C12644	C	0.912883	0.839999	0.172044
	C12645	C	0.975411	0.902439	0.171496
	C12646	C	0.874542	0.817863	0.328580
	C12647	C	0.937060	0.880143	0.327337
	C12648	C	0.874525	0.817892	0.173790
	C12649	C	0.937062	0.880184	0.172449
	C12650	C	0.912879	0.839979	0.326536
	C12651	C	0.975410	0.902460	0.326162
	C12652	C	0.888232	0.954079	0.498957
	C12653	C	0.944931	0.842527	-0.000315
	C12654	C	0.910941	0.894619	0.499951
	C12655	C	0.974960	0.856194	-0.000869
	C12656	C	0.908369	0.837928	0.249486
	C12657	C	0.970930	0.900279	0.248777
	C12658	C	0.878563	0.822907	0.251279
	C12659	C	0.941076	0.885257	0.250036
	C12660	C	0.893945	0.938958	0.499157
	C12661	C	0.952541	0.845922	-0.000780
	C12662	C	0.905142	0.909539	0.500028
	C12663	C	0.967225	0.853990	-0.000875
	C12664	C	0.900706	0.835198	0.249909
	C12665	C	0.963273	0.897374	0.248994
	C12666	C	0.885879	0.828517	0.251047
	C12667	C	0.948434	0.890732	0.249971
	C12668	C	0.896688	0.931019	0.482614
	C12669	C	0.956348	0.848046	0.416880
	C12670	C	0.902340	0.917241	-0.028702
	C12671	C	0.963415	0.851982	-0.084588
	C12672	C	0.902124	0.916671	0.482908
	C12673	C	0.963490	0.851781	0.416610
	C12674	C	0.896816	0.931321	-0.028474
	C12675	C	0.956277	0.848199	-0.084586
	C12676	C	0.896869	0.833559	0.167759
	C12677	C	0.959389	0.895906	0.166727
	C12678	C	0.889662	0.830940	0.333226
	C12679	C	0.952253	0.892752	0.331996
	C12680	C	0.889677	0.830320	0.168207
	C12681	C	0.952192	0.892693	0.167361
	C12682	C	0.896863	0.834162	0.332509
	C12683	C	0.959436	0.896028	0.331691
	N12684	N	0.879959	0.976546	0.451522
	N12685	N	0.933321	0.843010	0.450666
	N12686	N	0.919522	0.872857	0.047949
	N12687	N	0.986612	0.852711	0.047869
	N12688	N	0.919440	0.872726	0.451792
	N12689	N	0.986623	0.852475	0.450940
	N12690	N	0.879837	0.976250	0.046753
	N12691	N	0.933318	0.842815	0.048878
	N12692	N	0.919510	0.843262	0.200924
	N12693	N	0.982027	0.905938	0.200547
	N12694	N	0.868758	0.809919	0.299694
	N12695	N	0.931318	0.872065	0.298101
	N12696	N	0.868730	0.809924	0.203013
	N12697	N	0.931317	0.872074	0.201644
	N12698	N	0.919517	0.843213	0.297821
	N12699	N	0.982043	0.905903	0.297565
	H12700	H	0.885733	0.960350	0.850809
	H12701	H	0.941633	0.841763	0.847739
	H12702	H	0.913569	0.888400	0.650239
	H12703	H	0.978434	0.855801	0.651887
	H12704	H	0.913635	0.888503	0.849141
	H12705	H	0.978371	0.855800	0.847334
	H12706	H	0.885738	0.960675	0.647971
	H12707	H	0.941574	0.841708	0.652553
	H12708	H	0.911629	0.839797	0.599365
	H12709	H	0.974197	0.901944	0.597749
	H12710	H	0.875681	0.819219	0.902941
	H12711	H	0.938090	0.881892	0.901872
	H12712	H	0.875636	0.819342	0.598937
	H12713	H	0.938102	0.881836	0.597627
	H12714	H	0.911794	0.839081	0.901107
	H12715	H	0.974175	0.902233	0.900765
	H12716	H	0.894453	0.936003	1.051226
	H12717	H	0.953678	0.846760	1.149968
	H12718	H	0.904569	0.912271	0.530051
	H12719	H	0.966036	0.854148	0.650542
	H12720	H	0.904196	0.911071	1.050593
	H12721	H	0.966101	0.853520	1.149794
	H12722	H	0.894999	0.937567	0.529628
	H12723	H	0.953589	0.847466	0.650892
	H12724	H	0.899585	0.835414	0.898628
	H12725	H	0.962049	0.898095	0.601385
	H12726	H	0.887095	0.828944	0.602616
	H12727	H	0.949494	0.891540	0.897497
	H12728	H	0.886988	0.829726	0.898782
	H12729	H	0.949461	0.892137	0.601577
	H12730	H	0.899709	0.834616	0.602943
	H12731	H	0.962082	0.897605	0.897531
	Co12732	Co	0.988442	0.918567	0.624178
	Co12733	Co	0.925932	0.856029	0.624605
	Co12734	Co	0.863435	0.793526	0.876128
	Co12735	Co	0.925914	0.855928	0.875085
	C12736	C	0.884789	0.962806	0.923580
	C12737	C	0.940282	0.842197	0.921993
	C12738	C	0.914461	0.885818	0.576765
	C12739	C	0.979694	0.855043	0.577509
	C12740	C	0.914513	0.885970	0.922832
	C12741	C	0.979655	0.855073	0.921486
	C12742	C	0.884850	0.963174	0.575195
	C12743	C	0.940274	0.842256	0.577729
	C12744	C	0.912887	0.840109	0.673482
	C12745	C	0.975420	0.902575	0.671976
	C12746	C	0.874640	0.817746	0.828418
	C12747	C	0.937090	0.880221	0.827297
	C12748	C	0.874641	0.817697	0.673490
	C12749	C	0.937110	0.880180	0.672001
	C12750	C	0.912953	0.839794	0.827490
	C12751	C	0.975418	0.902735	0.826619
	C12752	C	0.888082	0.953706	1.000040
	C12753	C	0.944938	0.842570	0.500192
	C12754	C	0.910995	0.894624	0.999484
	C12755	C	0.974993	0.856082	0.500069
	C12756	C	0.908453	0.837806	0.750602
	C12757	C	0.970913	0.900594	0.749472
	C12758	C	0.878641	0.822795	0.750942
	C12759	C	0.941111	0.885276	0.749765
	C12760	C	0.893821	0.938576	1.000178
	C12761	C	0.952555	0.845932	0.500570
	C12762	C	0.905180	0.909548	0.999640
	C12763	C	0.967261	0.853963	0.500159
	C12764	C	0.900779	0.835068	0.750661
	C12765	C	0.963241	0.897798	0.749501
	C12766	C	0.885958	0.828420	0.750929
	C12767	C	0.948409	0.890956	0.749651
	C12768	C	0.896645	0.930810	1.028637
	C12769	C	0.956327	0.848139	1.082884
	C12770	C	0.902399	0.917470	0.516864
	C12771	C	0.963413	0.852385	0.583857
	C12772	C	0.902171	0.916734	1.028446
	C12773	C	0.963437	0.852044	1.082914
	C12774	C	0.896949	0.931771	0.516525
	C12775	C	0.956288	0.848537	0.584062
	C12776	C	0.896896	0.833950	0.833288
	C12777	C	0.959376	0.896569	0.667024
	C12778	C	0.889770	0.830234	0.668282
	C12779	C	0.952202	0.892936	0.832011
	C12780	C	0.889721	0.830712	0.833344
	C12781	C	0.952192	0.893200	0.667080
	C12782	C	0.896957	0.833498	0.668183
	C12783	C	0.959384	0.896309	0.831840
	N12784	N	0.879884	0.976272	0.951828
	N12785	N	0.933316	0.842786	0.950595
	N12786	N	0.919498	0.872817	0.547357
	N12787	N	0.986630	0.852537	0.548481
	N12788	N	0.919593	0.872987	0.952298
	N12789	N	0.986612	0.852613	0.950299
	N12790	N	0.879944	0.976538	0.546186
	N12791	N	0.933308	0.842898	0.548939
	N12792	N	0.919518	0.843433	0.701797
	N12793	N	0.982055	0.905935	0.700853
	N12794	N	0.868864	0.809702	0.799415
	N12795	N	0.931329	0.872159	0.798168
	N12796	N	0.868863	0.809688	0.702836
	N12797	N	0.931354	0.872107	0.701550
	N12798	N	0.919578	0.843192	0.798412
	N12799	N	0.982036	0.906099	0.797725
