data_Molecule from HDF5

_cell_length_a		62.966624
_cell_length_b		19.182077
_cell_length_c		159.013610
_cell_angle_alpha	89.996326
_cell_angle_beta	91.313463
_cell_angle_gamma	90.024467
_symmetry_space_group_name_H-M	'P 1'
_symmetry_Int_Tables_number		1

loop_
	_symmetry_equiv_pos_as_xyz
	x,y,z

loop_
	_atom_site_label
	_atom_site_type_symbol
	_atom_site_fract_x
	_atom_site_fract_y
	_atom_site_fract_z
	O0	O	0.109161	0.694332	0.050569
	O1	O	0.109518	0.811202	0.050469
	O2	O	0.032019	0.694548	0.069469
	O3	O	0.032002	0.811064	0.069474
	O4	O	0.031757	0.194032	0.069492
	O5	O	0.032190	0.310784	0.069425
	O6	O	0.032434	0.695031	0.049392
	O7	O	0.032328	0.811512	0.049401
	O8	O	0.032475	0.194330	0.049431
	O9	O	0.032143	0.310988	0.049272
	O10	O	0.109101	0.694067	0.070713
	O11	O	0.108783	0.810858	0.070615
	O12	O	0.108791	0.194418	0.070614
	O13	O	0.108954	0.311068	0.070680
	O14	O	0.109558	0.194168	0.050504
	O15	O	0.109107	0.310895	0.050594
	O16	O	0.094458	0.693033	0.006963
	O17	O	0.053520	0.695317	0.006497
	O18	O	0.088171	0.694438	0.113589
	O19	O	0.087742	0.811136	0.113512
	O20	O	0.046985	0.694106	0.113015
	O21	O	0.047023	0.810873	0.113027
	O22	O	0.054031	0.812114	0.006538
	O23	O	0.094987	0.809856	0.006894
	O24	O	0.094902	0.195539	0.006946
	O25	O	0.053920	0.193313	0.006498
	O26	O	0.087847	0.194138	0.113544
	O27	O	0.088068	0.311024	0.113556
	O28	O	0.047128	0.194237	0.113007
	O29	O	0.046938	0.310951	0.113078
	O30	O	0.053660	0.309924	0.006485
	O31	O	0.094475	0.312332	0.007007
	H32	H	0.038095	0.642987	0.083418
	H33	H	0.037558	0.862610	0.083458
	H34	H	0.037832	0.142700	0.083391
	H35	H	0.038034	0.362238	0.083403
	H36	H	0.040194	0.863275	0.035713
	H37	H	0.039955	0.643751	0.035656
	H38	H	0.039807	0.361458	0.035584
	H39	H	0.040421	0.142021	0.035767
	H40	H	0.149284	0.064704	0.058085
	H41	H	0.136503	0.065040	0.053002
	H42	H	0.136594	0.941367	0.053024
	H43	H	0.149292	0.941290	0.058081
	H44	H	0.143203	0.063876	0.067381
	H45	H	0.143154	0.941093	0.067342
	H46	H	0.007132	0.064807	0.057826
	H47	H	0.007132	0.940990	0.057833
	H48	H	0.006078	0.064242	0.059641
	H49	H	0.006074	0.941309	0.059655
	H50	H	0.010830	0.064648	0.061434
	H51	H	0.010881	0.941296	0.061442
	H52	H	0.029471	0.440923	0.060881
	H53	H	0.026153	0.440883	0.054940
	H54	H	0.014022	0.441204	0.066350
	H55	H	0.128047	0.440818	0.057398
	H56	H	0.136850	0.441207	0.059190
	H57	H	0.137336	0.440954	0.062069
	H58	H	0.026171	0.564469	0.054909
	H59	H	0.029521	0.564579	0.060906
	H60	H	0.137383	0.564533	0.062113
	H61	H	0.137018	0.564551	0.059224
	H62	H	0.128023	0.564483	0.057352
	H63	H	0.013927	0.564721	0.066348
	H64	H	0.101666	0.642932	0.084414
	H65	H	0.101037	0.862670	0.084283
	H66	H	0.100998	0.142621	0.084345
	H67	H	0.101724	0.362063	0.084419
	H68	H	0.045677	0.643881	0.020165
	H69	H	0.100198	0.641961	0.020923
	H70	H	0.100855	0.861342	0.020767
	H71	H	0.045874	0.863611	0.020197
	H72	H	0.103227	0.642463	0.036615
	H73	H	0.103858	0.862180	0.036476
	H74	H	0.096098	0.643199	0.099941
	H75	H	0.095411	0.862744	0.099805
	H76	H	0.069581	0.441512	0.000766
	H77	H	0.068831	0.440859	0.124067
	H78	H	0.062642	0.441022	-0.003682
	H79	H	0.067158	0.440848	-0.006980
	H80	H	0.068107	0.440762	0.122377
	H81	H	0.069545	0.440882	0.122977
	H82	H	0.068788	0.564112	0.124047
	H83	H	0.069611	0.564778	0.000724
	H84	H	0.069659	0.564131	0.122963
	H85	H	0.068170	0.564568	0.122351
	H86	H	0.067168	0.564428	-0.006996
	H87	H	0.062669	0.564516	-0.003695
	H88	H	0.095338	0.142556	0.099879
	H89	H	0.096142	0.362265	0.099920
	H90	H	0.070148	0.064597	-0.005840
	H91	H	0.066792	0.064538	-0.003614
	H92	H	0.079180	0.064578	-0.005796
	H93	H	0.040913	0.862401	0.099147
	H94	H	0.041437	0.642966	0.099107
	H95	H	0.041352	0.362217	0.099087
	H96	H	0.041096	0.142772	0.099101
	H97	H	0.046185	0.141636	0.020236
	H98	H	0.101040	0.143684	0.020811
	H99	H	0.099991	0.363436	0.020963
	H100	H	0.045556	0.361095	0.020089
	H101	H	0.104116	0.142904	0.036503
	H102	H	0.103173	0.362869	0.036673
	H103	H	0.071613	0.064307	0.120768
	H104	H	0.064904	0.063943	0.120314
	H105	H	0.059046	0.064187	0.123133
	H106	H	0.066784	0.941268	-0.003566
	H107	H	0.070036	0.941289	-0.005826
	H108	H	0.079168	0.941289	-0.005792
	H109	H	0.071666	0.940607	0.120743
	H110	H	0.064926	0.940735	0.120310
	H111	H	0.059074	0.940621	0.123124
	Zn112	Zn	0.011676	0.680218	0.059187
	Zn113	Zn	0.011696	0.825461	0.059192
	Zn114	Zn	0.011586	0.180331	0.059205
	Zn115	Zn	0.011737	0.325362	0.059193
	Zn116	Zn	0.067227	0.679709	0.123328
	Zn117	Zn	0.067136	0.824742	0.123354
	Zn118	Zn	0.067213	0.180143	0.123317
	Zn119	Zn	0.067287	0.325068	0.123334
	C120	C	0.107190	0.752621	0.046942
	C121	C	0.034204	0.752797	0.073062
	C122	C	0.037835	0.752857	0.082450
	C123	C	0.038801	0.690768	0.086895
	C124	C	0.038470	0.814870	0.086923
	C125	C	0.034114	0.252497	0.073042
	C126	C	0.037826	0.252483	0.082431
	C127	C	0.038550	0.190376	0.086878
	C128	C	0.038709	0.314522	0.086888
	C129	C	0.035008	0.753349	0.045883
	C130	C	0.039995	0.753582	0.036651
	C131	C	0.041486	0.815681	0.032252
	C132	C	0.041378	0.691545	0.032226
	C133	C	0.034913	0.252367	0.045840
	C134	C	0.039887	0.251813	0.036623
	C135	C	0.041264	0.313686	0.032174
	C136	C	0.041564	0.189596	0.032272
	C137	C	0.139369	0.043377	0.056944
	C138	C	0.139351	0.962281	0.056962
	C139	C	0.007915	0.043237	0.058855
	C140	C	0.007953	0.962462	0.058867
	C141	C	0.012697	0.043533	0.060665
	C142	C	0.012697	0.962358	0.060666
	C143	C	0.023567	0.462354	0.058233
	C144	C	0.126124	0.462365	0.058837
	C145	C	0.135074	0.462334	0.060681
	C146	C	0.023563	0.543310	0.058239
	C147	C	0.135083	0.543285	0.060686
	C148	C	0.126137	0.543251	0.058827
	C149	C	0.106363	0.752621	0.074166
	C150	C	0.106303	0.252648	0.074156
	C151	C	0.101498	0.752721	0.083398
	C152	C	0.100269	0.690720	0.087847
	C153	C	0.099857	0.814913	0.087761
	C154	C	0.101429	0.252380	0.083399
	C155	C	0.099820	0.190290	0.087806
	C156	C	0.100225	0.314381	0.087844
	C157	C	0.107230	0.252638	0.046953
	C158	C	0.096894	0.751432	0.010516
	C159	C	0.051114	0.753778	0.010004
	C160	C	0.044893	0.752535	0.109433
	C161	C	0.102695	0.690135	0.033110
	C162	C	0.103044	0.814313	0.033028
	C163	C	0.100539	0.751587	0.019908
	C164	C	0.046028	0.753802	0.019208
	C165	C	0.044390	0.691625	0.023602
	C166	C	0.101106	0.689703	0.024394
	C167	C	0.101465	0.813979	0.024303
	C168	C	0.044526	0.815806	0.023629
	C169	C	0.103656	0.752400	0.037527
	C170	C	0.090580	0.752760	0.110053
	C171	C	0.097256	0.690843	0.096468
	C172	C	0.096852	0.815001	0.096384
	C173	C	0.095572	0.752949	0.100829
	C174	C	0.067633	0.462127	0.123952
	C175	C	0.067302	0.462401	-0.004819
	C176	C	0.068424	0.462176	0.122839
	C177	C	0.067651	0.543081	0.123959
	C178	C	0.068426	0.542972	0.122832
	C179	C	0.067334	0.543322	-0.004813
	C180	C	0.090591	0.252544	0.110063
	C181	C	0.096899	0.190162	0.096437
	C182	C	0.097308	0.314479	0.096469
	C183	C	0.095594	0.252315	0.100843
	C184	C	0.070142	0.043370	-0.004336
	C185	C	0.096820	0.253907	0.010560
	C186	C	0.051140	0.251512	0.009989
	C187	C	0.044863	0.252714	0.109450
	C188	C	0.103120	0.190912	0.033062
	C189	C	0.102607	0.315282	0.033152
	C190	C	0.100492	0.253666	0.019947
	C191	C	0.046005	0.251358	0.019200
	C192	C	0.041226	0.752620	0.100053
	C193	C	0.040204	0.814833	0.095637
	C194	C	0.040543	0.690580	0.095608
	C195	C	0.041123	0.252552	0.100059
	C196	C	0.040409	0.314565	0.095605
	C197	C	0.040280	0.190425	0.095603
	C198	C	0.044671	0.189405	0.023653
	C199	C	0.101518	0.191273	0.024346
	C200	C	0.101015	0.315610	0.024432
	C201	C	0.044339	0.313459	0.023563
	C202	C	0.103622	0.252945	0.037563
	C203	C	0.067962	0.042866	0.121275
	C204	C	0.079289	0.043308	-0.004263
	C205	C	0.070082	0.962580	-0.004322
	C206	C	0.067965	0.962033	0.121283
	C207	C	0.079231	0.962621	-0.004280
	N208	N	0.011613	0.070115	0.059234
	N209	N	0.011647	0.935616	0.059244
	N210	N	0.011672	0.435660	0.059200
	N211	N	0.011654	0.570172	0.059186
	N212	N	0.067236	0.435304	0.123312
	N213	N	0.067268	0.569773	0.123293
	N214	N	0.067138	0.069886	0.123405
	N215	N	0.067154	0.935266	0.123402
	O216	O	0.103190	0.692764	0.177116
	O217	O	0.102638	0.809524	0.177165
	O218	O	0.025245	0.693522	0.196046
	O219	O	0.025136	0.810360	0.196126
	O220	O	0.025188	0.194834	0.196057
	O221	O	0.025133	0.311590	0.196074
	O222	O	0.025424	0.694024	0.176040
	O223	O	0.025360	0.810739	0.175996
	O224	O	0.025463	0.194231	0.175994
	O225	O	0.025683	0.310964	0.176095
	O226	O	0.102721	0.692861	0.197218
	O227	O	0.102011	0.809570	0.197064
	O228	O	0.102204	0.195486	0.197053
	O229	O	0.102766	0.312367	0.197232
	O230	O	0.102530	0.195350	0.177138
	O231	O	0.103161	0.312035	0.177101
	O232	O	0.087548	0.694378	0.133578
	O233	O	0.046698	0.693926	0.133153
	O234	O	0.081881	0.695246	0.240118
	O235	O	0.080957	0.811828	0.239943
	O236	O	0.040701	0.692227	0.239623
	O237	O	0.040115	0.808952	0.239657
	O238	O	0.046370	0.810790	0.133129
	O239	O	0.087267	0.811015	0.133660
	O240	O	0.087325	0.194227	0.133632
	O241	O	0.046428	0.194237	0.133149
	O242	O	0.081002	0.192892	0.239928
	O243	O	0.081815	0.309564	0.240047
	O244	O	0.040175	0.195749	0.239609
	O245	O	0.040602	0.312469	0.239635
	O246	O	0.046730	0.311034	0.133163
	O247	O	0.087776	0.311181	0.133580
	H248	H	0.031435	0.641542	0.209935
	H249	H	0.030576	0.861118	0.210067
	H250	H	0.030689	0.143809	0.210032
	H251	H	0.031453	0.363310	0.209972
	H252	H	0.032684	0.861993	0.162303
	H253	H	0.033695	0.642436	0.162426
	H254	H	0.033887	0.362601	0.162389
	H255	H	0.032786	0.142996	0.162292
	H256	H	0.110418	0.064324	0.184635
	H257	H	0.109806	0.064216	0.189339
	H258	H	0.109765	0.941354	0.189324
	H259	H	0.110462	0.940893	0.184591
	H260	H	0.125013	0.064757	0.181848
	H261	H	0.125017	0.940723	0.181862
	H262	H	0.007714	0.063847	0.182395
	H263	H	0.007647	0.940986	0.182410
	H264	H	0.000037	0.064526	0.182788
	H265	H	-0.000066	0.940485	0.182751
	H266	H	-0.003919	0.064634	0.186584
	H267	H	-0.003906	0.940876	0.186610
	H268	H	-0.001479	0.440884	0.181421
	H269	H	-0.007644	0.440860	0.184737
	H270	H	0.013006	0.441119	0.182074
	H271	H	0.126244	0.440657	0.183280
	H272	H	0.134231	0.441017	0.187065
	H273	H	0.131276	0.441053	0.190378
	H274	H	-0.007769	0.564112	0.184768
	H275	H	-0.001571	0.564220	0.181376
	H276	H	0.131402	0.564308	0.190388
	H277	H	0.134339	0.564006	0.187020
	H278	H	0.126157	0.564413	0.183292
	H279	H	0.012973	0.564591	0.182080
	H280	H	0.095345	0.642483	0.210962
	H281	H	0.093708	0.861426	0.210650
	H282	H	0.093852	0.143312	0.210656
	H283	H	0.095640	0.362543	0.210958
	H284	H	0.039277	0.642269	0.146909
	H285	H	0.094145	0.642178	0.147447
	H286	H	0.092783	0.861820	0.147603
	H287	H	0.038299	0.861898	0.146790
	H288	H	0.097692	0.641543	0.163121
	H289	H	0.096351	0.861275	0.163289
	H290	H	0.089904	0.643220	0.226489
	H291	H	0.088213	0.862583	0.226180
	H292	H	0.066756	0.441003	0.124251
	H293	H	0.063570	0.441086	0.248584
	H294	H	0.064791	0.440998	0.123442
	H295	H	0.065312	0.440611	0.122632
	H296	H	0.057238	0.440815	0.249667
	H297	H	0.058926	0.441314	0.248516
	H298	H	0.063559	0.564725	0.248578
	H299	H	0.066880	0.564321	0.124285
	H300	H	0.058833	0.564132	0.248557
	H301	H	0.057137	0.564360	0.249719
	H302	H	0.065283	0.564533	0.122629
	H303	H	0.064736	0.563857	0.123452
	H304	H	0.088291	0.142239	0.226168
	H305	H	0.090058	0.361674	0.226478
	H306	H	0.070802	0.064320	0.126219
	H307	H	0.075016	0.064268	0.124205
	H308	H	0.061653	0.064462	0.125650
	H309	H	0.034033	0.860635	0.225752
	H310	H	0.034891	0.640911	0.225639
	H311	H	0.034803	0.363816	0.225633
	H312	H	0.034016	0.144389	0.225718
	H313	H	0.038357	0.142846	0.146804
	H314	H	0.092843	0.143636	0.147553
	H315	H	0.094054	0.363208	0.147467
	H316	H	0.039494	0.362480	0.146865
	H317	H	0.096333	0.144066	0.163231
	H318	H	0.097605	0.363537	0.163153
	H319	H	0.045458	0.064079	0.248859
	H320	H	0.049192	0.063920	0.253776
	H321	H	0.066379	0.063657	0.255421
	H322	H	0.075011	0.940838	0.124194
	H323	H	0.070809	0.941219	0.126292
	H324	H	0.061513	0.940830	0.125662
	H325	H	0.045379	0.940574	0.248883
	H326	H	0.049257	0.940675	0.253770
	H327	H	0.066475	0.940701	0.255385
	Zn328	Zn	0.004634	0.679772	0.185801
	Zn329	Zn	0.004883	0.825296	0.185860
	Zn330	Zn	0.004864	0.179791	0.185837
	Zn331	Zn	0.004702	0.325272	0.185799
	Zn332	Zn	0.061113	0.680047	0.249879
	Zn333	Zn	0.060454	0.825026	0.249802
	Zn334	Zn	0.060510	0.180066	0.249805
	Zn335	Zn	0.061291	0.325286	0.249875
	C336	C	0.100746	0.751141	0.173562
	C337	C	0.027298	0.751767	0.199665
	C338	C	0.031034	0.751380	0.209055
	C339	C	0.032065	0.689052	0.213463
	C340	C	0.031598	0.813321	0.213531
	C341	C	0.027337	0.253157	0.199655
	C342	C	0.031080	0.253379	0.209048
	C343	C	0.031716	0.191487	0.213506
	C344	C	0.032073	0.315684	0.213468
	C345	C	0.027980	0.752330	0.172526
	C346	C	0.033001	0.752269	0.163308
	C347	C	0.034211	0.814288	0.158873
	C348	C	0.034763	0.690110	0.158944
	C349	C	0.028157	0.252732	0.172542
	C350	C	0.033087	0.252816	0.163309
	C351	C	0.034903	0.314893	0.158930
	C352	C	0.034278	0.190729	0.158875
	C353	C	0.113493	0.042947	0.187069
	C354	C	0.113503	0.962313	0.187078
	C355	C	0.004122	0.042964	0.183446
	C356	C	0.004082	0.962163	0.183438
	C357	C	0.000168	0.042909	0.187282
	C358	C	0.000170	0.962206	0.187306
	C359	C	-0.002146	0.462202	0.183792
	C360	C	0.122260	0.462031	0.184588
	C361	C	0.130370	0.462318	0.188369
	C362	C	-0.002160	0.542975	0.183793
	C363	C	0.130421	0.542886	0.188369
	C364	C	0.122261	0.543133	0.184572
	C365	C	0.099740	0.751338	0.200644
	C366	C	0.099883	0.253680	0.200634
	C367	C	0.094672	0.751768	0.209863
	C368	C	0.093758	0.690151	0.214368
	C369	C	0.092830	0.814092	0.214191
	C370	C	0.094855	0.253051	0.209856
	C371	C	0.092938	0.190662	0.214175
	C372	C	0.093944	0.314812	0.214347
	C373	C	0.100699	0.253719	0.173532
	C374	C	0.089619	0.752581	0.137205
	C375	C	0.043905	0.752304	0.136639
	C376	C	0.038279	0.750528	0.236052
	C377	C	0.096496	0.689459	0.159689
	C378	C	0.095680	0.813641	0.159776
	C379	C	0.093418	0.752130	0.146584
	C380	C	0.038903	0.752121	0.145873
	C381	C	0.037787	0.690037	0.150319
	C382	C	0.094686	0.689770	0.150974
	C383	C	0.093850	0.814020	0.151066
	C384	C	0.037176	0.814217	0.150250
	C385	C	0.096949	0.751422	0.164183
	C386	C	0.083967	0.753409	0.236527
	C387	C	0.090825	0.690724	0.222991
	C388	C	0.089876	0.814624	0.222820
	C389	C	0.088921	0.752936	0.227315
	C390	C	0.063618	0.462142	0.249363
	C391	C	0.065609	0.462131	0.123116
	C392	C	0.058912	0.462244	0.249316
	C393	C	0.063578	0.543119	0.249372
	C394	C	0.058828	0.542940	0.249320
	C395	C	0.065595	0.542828	0.123118
	C396	C	0.083962	0.251290	0.236489
	C397	C	0.089896	0.190038	0.222794
	C398	C	0.090904	0.314247	0.222967
	C399	C	0.088955	0.251843	0.227276
	C400	C	0.071381	0.043022	0.124733
	C401	C	0.089712	0.252760	0.137181
	C402	C	0.043921	0.252635	0.136646
	C403	C	0.038229	0.254231	0.236039
	C404	C	0.095810	0.191630	0.159724
	C405	C	0.096503	0.315768	0.159675
	C406	C	0.093500	0.253258	0.146549
	C407	C	0.038934	0.252687	0.145870
	C408	C	0.034450	0.750658	0.226665
	C409	C	0.033357	0.812952	0.222244
	C410	C	0.033837	0.688681	0.222180
	C411	C	0.034473	0.254027	0.226659
	C412	C	0.033836	0.316008	0.222182
	C413	C	0.033451	0.191862	0.222217
	C414	C	0.037241	0.190646	0.150259
	C415	C	0.093997	0.191337	0.151016
	C416	C	0.094680	0.315592	0.150965
	C417	C	0.037882	0.314797	0.150307
	C418	C	0.096954	0.253732	0.164146
	C419	C	0.050807	0.042694	0.250896
	C420	C	0.062146	0.043034	0.124114
	C421	C	0.071398	0.962327	0.124744
	C422	C	0.050800	0.961918	0.250903
	C423	C	0.062105	0.962035	0.124122
	N424	N	0.005036	0.069778	0.185838
	N425	N	0.005041	0.935359	0.185867
	N426	N	0.004701	0.435236	0.185783
	N427	N	0.004679	0.569708	0.185796
	N428	N	0.061297	0.435301	0.249852
	N429	N	0.061232	0.569802	0.249871
	N430	N	0.060526	0.069760	0.249778
	N431	N	0.060522	0.935190	0.249776
	O432	O	0.095338	0.695194	0.303694
	O433	O	0.095412	0.811867	0.303727
	O434	O	0.019205	0.694872	0.322683
	O435	O	0.018789	0.811757	0.322700
	O436	O	0.018732	0.193339	0.322719
	O437	O	0.019130	0.310055	0.322718
	O438	O	0.019687	0.694859	0.302613
	O439	O	0.019219	0.811784	0.302467
	O440	O	0.019128	0.193763	0.302510
	O441	O	0.019893	0.310451	0.302660
	O442	O	0.094714	0.694536	0.323784
	O443	O	0.095055	0.811183	0.323904
	O444	O	0.095122	0.193730	0.323910
	O445	O	0.094716	0.310424	0.323861
	O446	O	0.095270	0.193600	0.303764
	O447	O	0.095397	0.310156	0.303673
	O448	O	0.081444	0.695560	0.260094
	O449	O	0.040467	0.692325	0.259733
	O450	O	0.074102	0.693490	0.366772
	O451	O	0.073937	0.810374	0.366770
	O452	O	0.033211	0.694552	0.366279
	O453	O	0.032800	0.811168	0.366366
	O454	O	0.039877	0.809143	0.259533
	O455	O	0.080878	0.812471	0.260145
	O456	O	0.080767	0.192253	0.260143
	O457	O	0.039751	0.195231	0.259570
	O458	O	0.074159	0.194697	0.366801
	O459	O	0.074116	0.311465	0.366805
	O460	O	0.032864	0.193877	0.366368
	O461	O	0.033072	0.310477	0.366265
	O462	O	0.040718	0.311838	0.259729
	O463	O	0.081488	0.309132	0.260088
	H464	H	0.024909	0.643614	0.336611
	H465	H	0.024161	0.863602	0.336683
	H466	H	0.024074	0.142069	0.336672
	H467	H	0.024623	0.361440	0.336660
	H468	H	0.026093	0.862390	0.288682
	H469	H	0.027730	0.642766	0.288997
	H470	H	0.027957	0.362381	0.288967
	H471	H	0.026071	0.142799	0.288726
	H472	H	0.109538	0.064537	0.310918
	H473	H	0.105668	0.064281	0.313788
	H474	H	0.105766	0.940858	0.313804
	H475	H	0.109484	0.940844	0.310965
	H476	H	0.120748	0.064635	0.310818
	H477	H	0.120780	0.940672	0.310820
	H478	H	-0.001197	0.064277	0.314816
	H479	H	-0.001235	0.941094	0.314786
	H480	H	0.003570	0.064487	0.313978
	H481	H	0.003490	0.940967	0.313949
	H482	H	0.004103	0.064234	0.311125
	H483	H	0.004095	0.940617	0.311163
	H484	H	0.000536	0.440572	0.311767
	H485	H	-0.001282	0.440933	0.311565
	H486	H	0.001249	0.440687	0.312722
	H487	H	0.109201	0.440764	0.310901
	H488	H	0.120355	0.441194	0.310747
	H489	H	0.124952	0.440782	0.313537
	H490	H	-0.001321	0.564056	0.311600
	H491	H	0.000438	0.563919	0.311782
	H492	H	0.124883	0.564638	0.313542
	H493	H	0.120477	0.564218	0.310748
	H494	H	0.109074	0.564255	0.310884
	H495	H	0.001249	0.564399	0.312735
	H496	H	0.087234	0.642369	0.337531
	H497	H	0.087570	0.862363	0.337669
	H498	H	0.087330	0.142578	0.337605
	H499	H	0.087592	0.362128	0.337589
	H500	H	0.033270	0.641693	0.273482
	H501	H	0.087329	0.644369	0.274006
	H502	H	0.086253	0.864069	0.274089
	H503	H	0.031686	0.861480	0.273153
	H504	H	0.090376	0.644079	0.289710
	H505	H	0.089369	0.863856	0.289801
	H506	H	0.081759	0.642268	0.353061
	H507	H	0.082017	0.861811	0.353171
	H508	H	0.065231	0.441246	0.249788
	H509	H	0.050806	0.440874	0.375326
	H510	H	0.062902	0.440758	0.251324
	H511	H	0.059547	0.440287	0.251312
	H512	H	0.051615	0.441150	0.378102
	H513	H	0.049430	0.440930	0.377051
	H514	H	0.050885	0.564613	0.375314
	H515	H	0.065299	0.564561	0.249763
	H516	H	0.049352	0.564477	0.377078
	H517	H	0.051616	0.564237	0.378122
	H518	H	0.059498	0.564177	0.251340
	H519	H	0.062892	0.564005	0.251377
	H520	H	0.081860	0.142859	0.353114
	H521	H	0.082110	0.362602	0.353112
	H522	H	0.069790	0.064514	0.245064
	H523	H	0.057340	0.064465	0.243843
	H524	H	0.075129	0.064381	0.251743
	H525	H	0.027067	0.863311	0.352406
	H526	H	0.027800	0.643300	0.352324
	H527	H	0.027576	0.361506	0.352344
	H528	H	0.027136	0.142042	0.352397
	H529	H	0.031495	0.143529	0.273210
	H530	H	0.086375	0.140982	0.274138
	H531	H	0.087530	0.360645	0.273969
	H532	H	0.033355	0.362814	0.273443
	H533	H	0.089339	0.141406	0.289836
	H534	H	0.090492	0.361337	0.289665
	H535	H	0.044330	0.064385	0.374257
	H536	H	0.043264	0.064220	0.377830
	H537	H	0.053190	0.064270	0.380793
	H538	H	0.057287	0.940741	0.243851
	H539	H	0.069902	0.940420	0.245097
	H540	H	0.075049	0.940929	0.251761
	H541	H	0.044287	0.940715	0.374228
	H542	H	0.043194	0.940935	0.377792
	H543	H	0.053232	0.940858	0.380855
	Zn544	Zn	-0.000946	0.679659	0.312408
	Zn545	Zn	-0.001293	0.824833	0.312355
	Zn546	Zn	-0.001300	0.179966	0.312375
	Zn547	Zn	-0.000951	0.324862	0.312403
	Zn548	Zn	0.053288	0.680140	0.376602
	Zn549	Zn	0.053534	0.825013	0.376570
	Zn550	Zn	0.053430	0.180146	0.376579
	Zn551	Zn	0.053274	0.325123	0.376551
	C552	C	0.093284	0.753661	0.300111
	C553	C	0.021074	0.753409	0.326281
	C554	C	0.024454	0.753644	0.335686
	C555	C	0.025380	0.691359	0.340126
	C556	C	0.024979	0.815735	0.340168
	C557	C	0.020987	0.251645	0.326312
	C558	C	0.024433	0.251640	0.335706
	C559	C	0.024945	0.189631	0.340173
	C560	C	0.025235	0.313734	0.340148
	C561	C	0.022033	0.753100	0.299047
	C562	C	0.026849	0.752666	0.289797
	C563	C	0.027767	0.814517	0.285291
	C564	C	0.028663	0.690214	0.285474
	C565	C	0.022055	0.252215	0.299087
	C566	C	0.026838	0.252518	0.289842
	C567	C	0.028737	0.314726	0.285480
	C568	C	0.027738	0.190692	0.285348
	C569	C	0.109688	0.042973	0.312796
	C570	C	0.109714	0.962016	0.312804
	C571	C	0.000561	0.043011	0.313857
	C572	C	0.000488	0.962138	0.313845
	C573	C	0.001114	0.042953	0.311020
	C574	C	0.001100	0.962037	0.311022
	C575	C	-0.000528	0.461962	0.311881
	C576	C	0.109319	0.462003	0.312778
	C577	C	0.120678	0.462257	0.312635
	C578	C	-0.000535	0.542812	0.311877
	C579	C	0.120692	0.542991	0.312619
	C580	C	0.109322	0.543075	0.312773
	C581	C	0.092382	0.752724	0.327371
	C582	C	0.092398	0.252079	0.327397
	C583	C	0.087612	0.752336	0.336617
	C584	C	0.086076	0.690100	0.340998
	C585	C	0.086235	0.814370	0.341072
	C586	C	0.087550	0.252323	0.336631
	C587	C	0.086111	0.190303	0.341043
	C588	C	0.086239	0.314506	0.341046
	C589	C	0.093310	0.251708	0.300104
	C590	C	0.083246	0.754025	0.263700
	C591	C	0.037632	0.750960	0.263128
	C592	C	0.030888	0.753008	0.362723
	C593	C	0.089317	0.691904	0.286239
	C594	C	0.088757	0.816182	0.286292
	C595	C	0.086801	0.754186	0.273097
	C596	C	0.032630	0.751469	0.272353
	C597	C	0.031593	0.689641	0.276848
	C598	C	0.087797	0.691965	0.277520
	C599	C	0.087206	0.816307	0.277568
	C600	C	0.030713	0.813966	0.276661
	C601	C	0.089728	0.753930	0.290717
	C602	C	0.076720	0.751927	0.363290
	C603	C	0.083127	0.689976	0.349628
	C604	C	0.083270	0.814177	0.349697
	C605	C	0.081757	0.751957	0.354070
	C606	C	0.052725	0.462203	0.375575
	C607	C	0.061231	0.462164	0.250948
	C608	C	0.051244	0.462409	0.377330
	C609	C	0.052730	0.542997	0.375578
	C610	C	0.051215	0.543139	0.377346
	C611	C	0.061216	0.542968	0.250977
	C612	C	0.076777	0.253070	0.363305
	C613	C	0.083146	0.190534	0.349667
	C614	C	0.083257	0.314799	0.349672
	C615	C	0.081754	0.252728	0.354086
	C616	C	0.062773	0.042976	0.245857
	C617	C	0.083272	0.250700	0.263687
	C618	C	0.037588	0.253473	0.263154
	C619	C	0.030870	0.251998	0.362724
	C620	C	0.088924	0.189069	0.286315
	C621	C	0.089559	0.313391	0.286215
	C622	C	0.086961	0.250766	0.273087
	C623	C	0.032520	0.253199	0.272377
	C624	C	0.027347	0.753327	0.353317
	C625	C	0.026475	0.815555	0.348889
	C626	C	0.026859	0.691187	0.348847
	C627	C	0.027311	0.251717	0.353328
	C628	C	0.026683	0.313790	0.348865
	C629	C	0.026447	0.189664	0.348893
	C630	C	0.030592	0.191016	0.276715
	C631	C	0.087369	0.188832	0.277595
	C632	C	0.088034	0.313032	0.277495
	C633	C	0.031623	0.315072	0.276846
	C634	C	0.089885	0.251468	0.290720
	C635	C	0.046307	0.043063	0.376158
	C636	C	0.068041	0.042889	0.252576
	C637	C	0.062782	0.961882	0.245865
	C638	C	0.046314	0.962165	0.376153
	C639	C	0.068048	0.962211	0.252582
	N640	N	-0.001183	0.069784	0.312332
	N641	N	-0.001218	0.935197	0.312317
	N642	N	-0.000878	0.435015	0.312430
	N643	N	-0.000903	0.569558	0.312427
	N644	N	0.053265	0.435446	0.376632
	N645	N	0.053252	0.570014	0.376668
	N646	N	0.053496	0.069927	0.376578
	N647	N	0.053553	0.935402	0.376581
	O648	O	0.089730	0.694127	0.430339
	O649	O	0.089797	0.811027	0.430345
	O650	O	0.011344	0.695938	0.449278
	O651	O	0.010849	0.812552	0.449323
	O652	O	0.010908	0.193032	0.449317
	O653	O	0.011395	0.309574	0.449232
	O654	O	0.011691	0.695933	0.429302
	O655	O	0.011263	0.812679	0.429226
	O656	O	0.011294	0.192911	0.429264
	O657	O	0.011646	0.309578	0.429280
	O658	O	0.089620	0.694243	0.450293
	O659	O	0.089476	0.811200	0.450210
	O660	O	0.089518	0.193974	0.450226
	O661	O	0.089601	0.310665	0.450260
	O662	O	0.089883	0.194328	0.430274
	O663	O	0.089773	0.311058	0.430328
	O664	O	0.073344	0.693913	0.386857
	O665	O	0.032462	0.695115	0.386357
	O666	O	0.068205	0.694613	0.493095
	O667	O	0.068123	0.811351	0.493158
	O668	O	0.027231	0.694563	0.492783
	O669	O	0.027152	0.811494	0.492781
	O670	O	0.032955	0.811843	0.386410
	O671	O	0.073909	0.810768	0.386775
	O672	O	0.073804	0.194672	0.386780
	O673	O	0.032811	0.193814	0.386415
	O674	O	0.068205	0.194255	0.493143
	O675	O	0.068128	0.311065	0.493106
	O676	O	0.027242	0.193940	0.492796
	O677	O	0.027357	0.310653	0.492778
	O678	O	0.032569	0.310577	0.386408
	O679	O	0.073724	0.311299	0.386811
	H680	H	0.017657	0.643942	0.463201
	H681	H	0.016730	0.863705	0.463277
	H682	H	0.017074	0.141633	0.463248
	H683	H	0.017469	0.361525	0.463147
	H684	H	0.019047	0.864130	0.415505
	H685	H	0.019637	0.644636	0.415665
	H686	H	0.019631	0.361107	0.415671
	H687	H	0.018987	0.141276	0.415529
	H688	H	0.110571	0.064084	0.445435
	H689	H	0.119959	0.064275	0.443734
	H690	H	0.120009	0.940619	0.443713
	H691	H	0.110485	0.940415	0.445417
	H692	H	0.098716	0.064066	0.442167
	H693	H	0.098832	0.940909	0.442137
	H694	H	-0.008398	0.064789	0.436548
	H695	H	-0.008253	0.940956	0.436548
	H696	H	-0.013530	0.064644	0.437034
	H697	H	-0.013588	0.941403	0.436946
	H698	H	-0.015670	0.064127	0.439732
	H699	H	-0.015723	0.941530	0.439747
	H700	H	-0.016855	0.441086	0.443753
	H701	H	-0.004929	0.441348	0.444507
	H702	H	-0.023127	0.440716	0.437670
	H703	H	0.116254	0.441051	0.438915
	H704	H	0.116319	0.441121	0.442202
	H705	H	0.111130	0.440934	0.443349
	H706	H	-0.004902	0.564835	0.444481
	H707	H	-0.016837	0.564506	0.443739
	H708	H	0.111037	0.564283	0.443374
	H709	H	0.116290	0.564767	0.442195
	H710	H	0.116148	0.564296	0.438889
	H711	H	-0.023069	0.564700	0.437678
	H712	H	0.081310	0.643185	0.463901
	H713	H	0.081066	0.862955	0.463877
	H714	H	0.081079	0.142352	0.463876
	H715	H	0.081152	0.362564	0.463856
	H716	H	0.025321	0.644187	0.400145
	H717	H	0.079906	0.642817	0.400762
	H718	H	0.079782	0.862571	0.400739
	H719	H	0.024777	0.863651	0.400012
	H720	H	0.083503	0.642898	0.416470
	H721	H	0.083479	0.862798	0.416426
	H722	H	0.075709	0.643215	0.479432
	H723	H	0.075433	0.863142	0.479395
	H724	H	0.054255	0.440815	0.375076
	H725	H	0.032359	0.440739	0.502757
	H726	H	0.057216	0.440987	0.376472
	H727	H	0.056238	0.440915	0.377741
	H728	H	0.055290	0.440849	0.508284
	H729	H	0.042443	0.440748	0.508633
	H730	H	0.032519	0.564970	0.502784
	H731	H	0.054201	0.564087	0.375081
	H732	H	0.042504	0.564362	0.508627
	H733	H	0.055340	0.563889	0.508386
	H734	H	0.056182	0.564645	0.377789
	H735	H	0.057304	0.564394	0.376512
	H736	H	0.075496	0.142527	0.479422
	H737	H	0.075421	0.362563	0.479366
	H738	H	0.062962	0.064339	0.374633
	H739	H	0.055613	0.064438	0.372402
	H740	H	0.061588	0.064274	0.379469
	H741	H	0.020470	0.863344	0.478957
	H742	H	0.021449	0.643320	0.478886
	H743	H	0.021189	0.361861	0.478852
	H744	H	0.020845	0.142307	0.478916
	H745	H	0.024733	0.141796	0.400013
	H746	H	0.079932	0.143107	0.400658
	H747	H	0.079899	0.362740	0.400757
	H748	H	0.025401	0.361807	0.400179
	H749	H	0.083620	0.142872	0.416346
	H750	H	0.083594	0.362497	0.416431
	H751	H	0.037020	0.064356	0.501050
	H752	H	0.037185	0.064358	0.504925
	H753	H	0.048798	0.063933	0.507600
	H754	H	0.055706	0.940733	0.372383
	H755	H	0.063075	0.940989	0.374602
	H756	H	0.061577	0.940668	0.379496
	H757	H	0.037028	0.940986	0.501023
	H758	H	0.037099	0.941125	0.504906
	H759	H	0.048678	0.940575	0.507624
	Zn760	Zn	-0.009042	0.680363	0.439055
	Zn761	Zn	-0.009560	0.825252	0.439033
	Zn762	Zn	-0.009603	0.180210	0.439054
	Zn763	Zn	-0.009091	0.325121	0.439062
	Zn764	Zn	0.047826	0.680074	0.502984
	Zn765	Zn	0.047685	0.825148	0.503011
	Zn766	Zn	0.047777	0.180094	0.503024
	Zn767	Zn	0.047754	0.324977	0.502994
	C768	C	0.087528	0.752600	0.426770
	C769	C	0.013333	0.754235	0.452897
	C770	C	0.017264	0.753860	0.462293
	C771	C	0.018393	0.691545	0.466718
	C772	C	0.017872	0.815911	0.466751
	C773	C	0.013363	0.251375	0.452860
	C774	C	0.017313	0.251606	0.462219
	C775	C	0.018106	0.189610	0.466693
	C776	C	0.018355	0.313859	0.466646
	C777	C	0.014124	0.754312	0.425774
	C778	C	0.019282	0.754357	0.416552
	C779	C	0.020579	0.816357	0.412102
	C780	C	0.020896	0.692131	0.412189
	C781	C	0.014094	0.251188	0.425769
	C782	C	0.019146	0.251164	0.416556
	C783	C	0.020832	0.313549	0.412195
	C784	C	0.020505	0.189105	0.412111
	C785	C	0.114004	0.042959	0.443515
	C786	C	0.113988	0.961944	0.443500
	C787	C	-0.010603	0.043253	0.437370
	C788	C	-0.010609	0.962244	0.437357
	C789	C	-0.012749	0.043231	0.440139
	C790	C	-0.012777	0.962382	0.440139
	C791	C	-0.010428	0.462396	0.442793
	C792	C	0.112737	0.462318	0.438896
	C793	C	0.112838	0.462308	0.442199
	C794	C	-0.010410	0.543171	0.442793
	C795	C	0.112808	0.543114	0.442193
	C796	C	0.112659	0.542971	0.438884
	C797	C	0.086798	0.752866	0.453724
	C798	C	0.086790	0.252271	0.453724
	C799	C	0.081436	0.753147	0.462933
	C800	C	0.079996	0.690948	0.467348
	C801	C	0.079818	0.815292	0.467337
	C802	C	0.081434	0.252443	0.462913
	C803	C	0.079870	0.190218	0.467322
	C804	C	0.079875	0.314725	0.467304
	C805	C	0.087573	0.252752	0.426726
	C806	C	0.075825	0.752395	0.390396
	C807	C	0.030144	0.753523	0.389884
	C808	C	0.024972	0.753050	0.489227
	C809	C	0.082619	0.690606	0.412965
	C810	C	0.082604	0.814942	0.412951
	C811	C	0.079790	0.752654	0.399789
	C812	C	0.025245	0.753830	0.399118
	C813	C	0.023914	0.691958	0.403565
	C814	C	0.080683	0.690530	0.404253
	C815	C	0.080673	0.814867	0.404239
	C816	C	0.023636	0.816064	0.403486
	C817	C	0.083451	0.752730	0.417406
	C818	C	0.070685	0.753145	0.489611
	C819	C	0.076960	0.690958	0.475973
	C820	C	0.076807	0.815372	0.475962
	C821	C	0.075493	0.753215	0.480370
	C822	C	0.038492	0.462018	0.501125
	C823	C	0.055829	0.462216	0.376999
	C824	C	0.048579	0.462216	0.507035
	C825	C	0.038531	0.543010	0.501128
	C826	C	0.048614	0.542875	0.507023
	C827	C	0.055829	0.543238	0.377012
	C828	C	0.070654	0.252621	0.489610
	C829	C	0.076839	0.190309	0.475952
	C830	C	0.076826	0.314754	0.475927
	C831	C	0.075422	0.252591	0.480351
	C832	C	0.057776	0.043185	0.374298
	C833	C	0.075980	0.252974	0.390378
	C834	C	0.030115	0.252150	0.389911
	C835	C	0.024981	0.252286	0.489214
	C836	C	0.082721	0.190613	0.412873
	C837	C	0.082721	0.314825	0.412935
	C838	C	0.079891	0.252873	0.399744
	C839	C	0.025159	0.251779	0.399138
	C840	C	0.021020	0.753295	0.479877
	C841	C	0.019818	0.815682	0.475461
	C842	C	0.020350	0.691168	0.475427
	C843	C	0.021117	0.252123	0.479824
	C844	C	0.020294	0.314131	0.475361
	C845	C	0.020053	0.189897	0.475404
	C846	C	0.023539	0.189449	0.403494
	C847	C	0.080759	0.190722	0.404159
	C848	C	0.080752	0.314922	0.404222
	C849	C	0.023868	0.313893	0.403575
	C850	C	0.083641	0.252628	0.417349
	C851	C	0.039862	0.043033	0.503001
	C852	C	0.056357	0.042947	0.379195
	C853	C	0.057828	0.962280	0.374296
	C854	C	0.039836	0.962249	0.502987
	C855	C	0.056374	0.962084	0.379206
	N856	N	-0.009632	0.069938	0.439032
	N857	N	-0.009648	0.935420	0.439000
	N858	N	-0.009130	0.435388	0.439039
	N859	N	-0.009087	0.569992	0.439034
	N860	N	0.047780	0.435095	0.502948
	N861	N	0.047802	0.569665	0.502956
	N862	N	0.047700	0.069933	0.503010
	N863	N	0.047683	0.935411	0.503026
	O864	O	0.076521	0.693883	0.557072
	O865	O	0.076565	0.810601	0.557069
	O866	O	0.005333	0.692863	0.575737
	O867	O	0.005752	0.809709	0.575713
	O868	O	0.005736	0.196013	0.575750
	O869	O	0.005257	0.312838	0.575750
	O870	O	0.005413	0.692595	0.555570
	O871	O	0.005793	0.809342	0.555634
	O872	O	0.005720	0.195326	0.555683
	O873	O	0.005321	0.312146	0.555574
	O874	O	0.079025	0.693624	0.578326
	O875	O	0.078844	0.810206	0.578286
	O876	O	0.079117	0.194084	0.578324
	O877	O	0.078963	0.310567	0.578348
	O878	O	0.076554	0.194177	0.557077
	O879	O	0.076445	0.311054	0.557122
	O880	O	0.068171	0.693975	0.513262
	O881	O	0.026955	0.693645	0.512746
	O882	O	0.055140	0.694406	0.620770
	O883	O	0.054895	0.811003	0.620707
	O884	O	0.013795	0.693391	0.619595
	O885	O	0.013843	0.810261	0.619547
	O886	O	0.026658	0.810460	0.512712
	O887	O	0.068007	0.810695	0.513275
	O888	O	0.067934	0.194860	0.513285
	O889	O	0.026816	0.194598	0.512731
	O890	O	0.054897	0.193128	0.620708
	O891	O	0.055151	0.310031	0.620751
	O892	O	0.013775	0.195088	0.619572
	O893	O	0.013891	0.312035	0.619548
	O894	O	0.026905	0.311242	0.512742
	O895	O	0.068092	0.311418	0.513269
	H896	H	0.009551	0.641678	0.589786
	H897	H	0.010305	0.861305	0.589756
	H898	H	0.010751	0.144726	0.589727
	H899	H	0.009284	0.364419	0.589802
	H900	H	0.013123	0.861351	0.541944
	H901	H	0.012639	0.641233	0.541820
	H902	H	0.012942	0.363285	0.541887
	H903	H	0.012902	0.143708	0.541957
	H904	H	0.098685	0.064147	0.570063
	H905	H	0.101982	0.063866	0.568267
	H906	H	0.101852	0.941311	0.568296
	H907	H	0.098502	0.940665	0.570063
	H908	H	0.090907	0.063956	0.569632
	H909	H	0.090871	0.940822	0.569588
	H910	H	-0.021944	0.064309	0.561889
	H911	H	-0.021988	0.941021	0.561835
	H912	H	-0.026268	0.064156	0.565375
	H913	H	-0.026353	0.941101	0.565347
	H914	H	-0.018778	0.064339	0.569867
	H915	H	-0.018722	0.940831	0.569865
	H916	H	-0.027425	0.441214	0.561328
	H917	H	-0.030825	0.441645	0.566401
	H918	H	-0.009760	0.440802	0.559665
	H919	H	0.103584	0.441205	0.563669
	H920	H	0.107981	0.440851	0.569431
	H921	H	0.100484	0.441022	0.572616
	H922	H	-0.030731	0.564495	0.566416
	H923	H	-0.027314	0.564770	0.561355
	H924	H	0.100500	0.564323	0.572587
	H925	H	0.108006	0.564272	0.569403
	H926	H	0.103591	0.563752	0.563693
	H927	H	-0.009758	0.564340	0.559632
	H928	H	0.072733	0.642856	0.592129
	H929	H	0.072640	0.861422	0.592016
	H930	H	0.072838	0.142495	0.592060
	H931	H	0.072663	0.361275	0.592099
	H932	H	0.018414	0.641934	0.526302
	H933	H	0.072598	0.642490	0.527261
	H934	H	0.072774	0.862320	0.527281
	H935	H	0.018871	0.861854	0.526430
	H936	H	0.073563	0.642406	0.542980
	H937	H	0.073720	0.862243	0.542997
	H938	H	0.065678	0.643335	0.607523
	H939	H	0.065546	0.861640	0.607402
	H940	H	0.037899	0.441178	0.498174
	H941	H	0.033612	0.441038	0.633542
	H942	H	0.055521	0.441313	0.497793
	H943	H	0.062904	0.440468	0.502091
	H944	H	0.039932	0.440757	0.628200
	H945	H	0.041205	0.440860	0.631093
	H946	H	0.033512	0.564244	0.633543
	H947	H	0.037993	0.564251	0.498197
	H948	H	0.041221	0.563984	0.631133
	H949	H	0.039937	0.563698	0.628253
	H950	H	0.062943	0.564641	0.502051
	H951	H	0.055589	0.564253	0.497784
	H952	H	0.065491	0.142345	0.607440
	H953	H	0.065322	0.361010	0.607491
	H954	H	0.057097	0.064134	0.500415
	H955	H	0.048523	0.064328	0.498439
	H956	H	0.057247	0.064116	0.505729
	H957	H	0.011254	0.861513	0.605486
	H958	H	0.010522	0.641964	0.605526
	H959	H	0.010232	0.363757	0.605545
	H960	H	0.011705	0.144248	0.605447
	H961	H	0.018538	0.143385	0.526420
	H962	H	0.072772	0.142937	0.527309
	H963	H	0.072626	0.362991	0.527293
	H964	H	0.018564	0.363154	0.526403
	H965	H	0.073710	0.143009	0.543015
	H966	H	0.073475	0.362817	0.543042
	H967	H	0.037455	0.064046	0.629181
	H968	H	0.033650	0.064462	0.627988
	H969	H	0.027732	0.064334	0.628978
	H970	H	0.048596	0.940819	0.498437
	H971	H	0.057175	0.940917	0.500442
	H972	H	0.057177	0.940813	0.505750
	H973	H	0.037488	0.940766	0.629187
	H974	H	0.033795	0.940430	0.628017
	H975	H	0.027841	0.940958	0.628959
	Zn976	Zn	-0.015153	0.680025	0.565472
	Zn977	Zn	-0.014524	0.825271	0.565501
	Zn978	Zn	-0.014529	0.180094	0.565574
	Zn979	Zn	-0.015197	0.325253	0.565463
	Zn980	Zn	0.032822	0.679841	0.630158
	Zn981	Zn	0.032723	0.824959	0.630153
	Zn982	Zn	0.032578	0.179935	0.630154
	Zn983	Zn	0.033063	0.324944	0.630162
	C984	C	0.075158	0.752216	0.553412
	C985	C	0.007404	0.751246	0.579340
	C986	C	0.009972	0.751418	0.588788
	C987	C	0.009965	0.689426	0.593269
	C988	C	0.010398	0.813641	0.593246
	C989	C	0.007303	0.254538	0.579362
	C990	C	0.009940	0.254573	0.588810
	C991	C	0.010628	0.192360	0.593245
	C992	C	0.009806	0.316584	0.593292
	C993	C	0.008090	0.751015	0.552086
	C994	C	0.012909	0.751350	0.542839
	C995	C	0.014400	0.813731	0.538471
	C996	C	0.014104	0.689207	0.538402
	C997	C	0.008032	0.253605	0.552118
	C998	C	0.012863	0.253368	0.542875
	C999	C	0.014256	0.315438	0.538453
	C1000	C	0.014259	0.191209	0.538485
	C1001	C	0.098936	0.042723	0.568780
	C1002	C	0.098869	0.962061	0.568792
	C1003	C	-0.021594	0.043038	0.564139
	C1004	C	-0.021622	0.962310	0.564127
	C1005	C	-0.013996	0.043263	0.568662
	C1006	C	-0.013984	0.962457	0.568668
	C1007	C	-0.025416	0.462501	0.564289
	C1008	C	0.097420	0.462381	0.564323
	C1009	C	0.101901	0.462146	0.570144
	C1010	C	-0.025392	0.543206	0.564299
	C1011	C	0.101892	0.543121	0.570130
	C1012	C	0.097407	0.542870	0.564321
	C1013	C	0.077028	0.751936	0.581871
	C1014	C	0.077164	0.252194	0.581904
	C1015	C	0.072796	0.752013	0.591119
	C1016	C	0.071178	0.690317	0.595522
	C1017	C	0.071142	0.813954	0.595462
	C1018	C	0.072824	0.251970	0.591149
	C1019	C	0.071193	0.189900	0.595489
	C1020	C	0.071067	0.313824	0.595521
	C1021	C	0.075166	0.252708	0.553455
	C1022	C	0.069915	0.752341	0.516882
	C1023	C	0.024113	0.752020	0.516216
	C1024	C	0.012468	0.751716	0.615920
	C1025	C	0.073263	0.690221	0.539492
	C1026	C	0.073356	0.814435	0.539511
	C1027	C	0.072636	0.752393	0.526315
	C1028	C	0.018859	0.751904	0.525415
	C1029	C	0.017130	0.689548	0.529781
	C1030	C	0.072879	0.690319	0.530763
	C1031	C	0.072972	0.814515	0.530776
	C1032	C	0.017390	0.814032	0.529847
	C1033	C	0.073236	0.752239	0.543959
	C1034	C	0.058426	0.752675	0.617385
	C1035	C	0.067349	0.690582	0.604072
	C1036	C	0.067275	0.814163	0.604009
	C1037	C	0.065189	0.752473	0.608377
	C1038	C	0.030825	0.462077	0.632273
	C1039	C	0.056216	0.462191	0.500724
	C1040	C	0.038484	0.462024	0.629788
	C1041	C	0.030793	0.543061	0.632288
	C1042	C	0.038477	0.542677	0.629817
	C1043	C	0.056230	0.543107	0.500733
	C1044	C	0.058387	0.251557	0.617383
	C1045	C	0.067327	0.189794	0.604038
	C1046	C	0.067201	0.313667	0.604068
	C1047	C	0.065161	0.251643	0.608385
	C1048	C	0.051467	0.042954	0.500375
	C1049	C	0.069884	0.253173	0.516903
	C1050	C	0.024086	0.252918	0.516224
	C1051	C	0.012486	0.253579	0.615914
	C1052	C	0.073316	0.190779	0.539522
	C1053	C	0.073209	0.315068	0.539530
	C1054	C	0.072618	0.253022	0.526332
	C1055	C	0.018816	0.253097	0.525430
	C1056	C	0.010592	0.751662	0.606451
	C1057	C	0.010767	0.813760	0.601986
	C1058	C	0.010336	0.689547	0.602006
	C1059	C	0.010562	0.253886	0.606461
	C1060	C	0.010228	0.316199	0.602024
	C1061	C	0.011029	0.192047	0.601973
	C1062	C	0.017242	0.191104	0.529852
	C1063	C	0.072916	0.190810	0.530792
	C1064	C	0.072826	0.315200	0.530795
	C1065	C	0.017255	0.315302	0.529833
	C1066	C	0.073261	0.252880	0.543987
	C1067	C	0.034704	0.043082	0.628997
	C1068	C	0.051603	0.043022	0.505714
	C1069	C	0.051475	0.962069	0.500383
	C1070	C	0.034797	0.962028	0.629006
	C1071	C	0.051555	0.962103	0.505720
	N1072	N	-0.014524	0.069981	0.565583
	N1073	N	-0.014514	0.935402	0.565550
	N1074	N	-0.015175	0.435481	0.565468
	N1075	N	-0.015160	0.569967	0.565462
	N1076	N	0.032831	0.435141	0.630133
	N1077	N	0.032768	0.569678	0.630153
	N1078	N	0.032371	0.069765	0.630153
	N1079	N	0.032497	0.935146	0.630157
	O1080	O	0.132108	0.694684	0.671928
	O1081	O	0.132198	0.810799	0.671913
	O1082	O	-0.004830	0.694098	0.701288
	O1083	O	-0.004839	0.810439	0.701299
	O1084	O	-0.004760	0.194717	0.701270
	O1085	O	-0.004928	0.311198	0.701323
	O1086	O	-0.007406	0.694030	0.683239
	O1087	O	-0.007305	0.810794	0.683231
	O1088	O	-0.007376	0.194672	0.683202
	O1089	O	-0.007489	0.311437	0.683216
	O1090	O	0.134855	0.694649	0.690062
	O1091	O	0.134889	0.811559	0.690024
	O1092	O	0.134904	0.194166	0.690095
	O1093	O	0.134956	0.311035	0.690055
	O1094	O	0.132183	0.193940	0.671934
	O1095	O	0.132045	0.310361	0.671915
	O1096	O	0.057720	0.694607	0.638808
	O1097	O	0.016152	0.693523	0.640806
	O1098	O	0.111235	0.695231	0.732456
	O1099	O	0.111248	0.811954	0.732473
	O1100	O	0.069659	0.694169	0.734397
	O1101	O	0.069332	0.810493	0.734481
	O1102	O	0.016075	0.810144	0.640760
	O1103	O	0.057822	0.811000	0.638786
	O1104	O	0.057678	0.193499	0.638814
	O1105	O	0.016156	0.195179	0.640801
	O1106	O	0.111005	0.194187	0.732481
	O1107	O	0.111132	0.310749	0.732500
	O1108	O	0.069477	0.194952	0.734473
	O1109	O	0.069706	0.311299	0.734381
	O1110	O	0.016317	0.311967	0.640794
	O1111	O	0.057955	0.309755	0.638787
	H1112	H	0.018891	0.643882	0.711940
	H1113	H	0.019172	0.860338	0.711852
	H1114	H	0.019196	0.144535	0.711856
	H1115	H	0.019072	0.361363	0.711872
	H1116	H	0.002770	0.861778	0.669875
	H1117	H	0.003208	0.642912	0.669954
	H1118	H	0.002884	0.362781	0.669953
	H1119	H	0.003034	0.144020	0.669946
	H1120	H	0.165526	0.064494	0.684650
	H1121	H	0.170197	0.064666	0.680816
	H1122	H	0.170336	0.941504	0.680778
	H1123	H	0.165558	0.941331	0.684658
	H1124	H	0.150543	0.064667	0.685033
	H1125	H	0.150518	0.940421	0.685021
	H1126	H	-0.026952	0.064555	0.690525
	H1127	H	-0.027062	0.941017	0.690542
	H1128	H	-0.032044	0.063963	0.690388
	H1129	H	-0.032048	0.940993	0.690390
	H1130	H	-0.035699	0.063817	0.692669
	H1131	H	-0.035763	0.940864	0.692705
	H1132	H	-0.024800	0.440858	0.693482
	H1133	H	-0.024970	0.440876	0.691627
	H1134	H	-0.029999	0.440803	0.694765
	H1135	H	0.162613	0.441169	0.683270
	H1136	H	0.152522	0.441021	0.683545
	H1137	H	0.148255	0.440795	0.681114
	H1138	H	-0.024920	0.564237	0.691545
	H1139	H	-0.024640	0.563982	0.693427
	H1140	H	0.148450	0.564713	0.681088
	H1141	H	0.152542	0.564414	0.683514
	H1142	H	0.162600	0.564359	0.683307
	H1143	H	-0.030009	0.564448	0.694781
	H1144	H	0.124427	0.643865	0.703316
	H1145	H	0.124425	0.862717	0.703290
	H1146	H	0.124444	0.143494	0.703352
	H1147	H	0.124641	0.361842	0.703364
	H1148	H	0.010063	0.642554	0.654533
	H1149	H	0.081771	0.644887	0.649317
	H1150	H	0.081732	0.860714	0.649369
	H1151	H	0.009597	0.861615	0.654463
	H1152	H	0.108098	0.644761	0.661341
	H1153	H	0.108089	0.860616	0.661386
	H1154	H	0.117358	0.643855	0.718722
	H1155	H	0.117458	0.862695	0.718699
	H1156	H	0.026749	0.440472	0.632510
	H1157	H	0.099649	0.440936	0.742162
	H1158	H	0.024971	0.440538	0.628636
	H1159	H	0.030581	0.440820	0.626838
	H1160	H	0.090092	0.440824	0.741782
	H1161	H	0.094120	0.441354	0.740858
	H1162	H	0.099721	0.564473	0.742189
	H1163	H	0.026676	0.564438	0.632536
	H1164	H	0.094178	0.564776	0.740875
	H1165	H	0.090295	0.564176	0.741776
	H1166	H	0.030591	0.564068	0.626834
	H1167	H	0.025005	0.564458	0.628631
	H1168	H	0.117278	0.143474	0.718765
	H1169	H	0.117485	0.361546	0.718759
	H1170	H	0.032385	0.064566	0.632389
	H1171	H	0.036681	0.063723	0.631675
	H1172	H	0.027178	0.064356	0.630764
	H1173	H	0.045462	0.860747	0.723868
	H1174	H	0.045200	0.643731	0.723958
	H1175	H	0.045532	0.361569	0.723845
	H1176	H	0.045680	0.144724	0.723828
	H1177	H	0.010152	0.144044	0.654548
	H1178	H	0.081965	0.142617	0.649343
	H1179	H	0.081875	0.360100	0.649337
	H1180	H	0.010026	0.363056	0.654562
	H1181	H	0.108140	0.143192	0.661401
	H1182	H	0.108066	0.360126	0.661397
	H1183	H	0.094207	0.064122	0.743864
	H1184	H	0.095856	0.064731	0.743720
	H1185	H	0.096336	0.064950	0.742754
	H1186	H	0.036705	0.940732	0.631676
	H1187	H	0.032425	0.940956	0.632408
	H1188	H	0.027219	0.941125	0.630789
	H1189	H	0.094144	0.940929	0.743873
	H1190	H	0.095905	0.940799	0.743697
	H1191	H	0.096281	0.941005	0.742736
	Zn1192	Zn	-0.029676	0.679859	0.692596
	Zn1193	Zn	-0.029626	0.825038	0.692609
	Zn1194	Zn	-0.029579	0.179982	0.692576
	Zn1195	Zn	-0.029741	0.325103	0.692625
	Zn1196	Zn	0.094558	0.680034	0.743057
	Zn1197	Zn	0.094304	0.825436	0.743094
	Zn1198	Zn	0.094432	0.180191	0.743110
	Zn1199	Zn	0.094545	0.325410	0.743086
	C1200	C	0.125733	0.752746	0.669221
	C1201	C	0.001542	0.752228	0.703980
	C1202	C	0.017677	0.752091	0.711117
	C1203	C	0.024939	0.690843	0.714559
	C1204	C	0.025074	0.813447	0.714513
	C1205	C	0.001563	0.252962	0.703977
	C1206	C	0.017680	0.252971	0.711108
	C1207	C	0.025125	0.191634	0.714507
	C1208	C	0.025000	0.314335	0.714539
	C1209	C	-0.004019	0.752400	0.679876
	C1210	C	0.002581	0.752358	0.670838
	C1211	C	0.004487	0.814253	0.666467
	C1212	C	0.004727	0.690297	0.666513
	C1213	C	-0.004110	0.253090	0.679849
	C1214	C	0.002622	0.253300	0.670836
	C1215	C	0.004680	0.315333	0.666525
	C1216	C	0.004741	0.191377	0.666514
	C1217	C	0.165115	0.043074	0.682179
	C1218	C	0.165127	0.962673	0.682163
	C1219	C	-0.029568	0.043158	0.691027
	C1220	C	-0.029600	0.962206	0.691021
	C1221	C	-0.033302	0.042939	0.693310
	C1222	C	-0.033310	0.962138	0.693310
	C1223	C	-0.026224	0.462126	0.692542
	C1224	C	0.162337	0.462369	0.681617
	C1225	C	0.152157	0.462106	0.681866
	C1226	C	-0.026158	0.542873	0.692529
	C1227	C	0.152242	0.543330	0.681871
	C1228	C	0.162325	0.543097	0.681627
	C1229	C	0.131564	0.753200	0.693399
	C1230	C	0.131620	0.252655	0.693431
	C1231	C	0.124897	0.753213	0.702417
	C1232	C	0.122768	0.691203	0.706752
	C1233	C	0.122796	0.815252	0.706732
	C1234	C	0.124988	0.252589	0.702446
	C1235	C	0.122805	0.190757	0.706787
	C1236	C	0.122943	0.314412	0.706782
	C1237	C	0.125747	0.252015	0.669232
	C1238	C	0.064177	0.752804	0.641469
	C1239	C	0.014274	0.751913	0.644349
	C1240	C	0.063070	0.752280	0.731763
	C1241	C	0.102224	0.691586	0.658665
	C1242	C	0.102190	0.813777	0.658701
	C1243	C	0.080285	0.752694	0.648581
	C1244	C	0.010053	0.752077	0.653576
	C1245	C	0.008549	0.690136	0.657961
	C1246	C	0.087660	0.691664	0.651986
	C1247	C	0.087638	0.813797	0.652018
	C1248	C	0.008301	0.814142	0.657920
	C1249	C	0.109613	0.752642	0.662079
	C1250	C	0.113109	0.753619	0.728906
	C1251	C	0.118939	0.691339	0.715302
	C1252	C	0.118995	0.815214	0.715283
	C1253	C	0.117422	0.753358	0.719666
	C1254	C	0.098437	0.462383	0.743091
	C1255	C	0.029078	0.461847	0.628376
	C1256	C	0.092897	0.462180	0.741788
	C1257	C	0.098428	0.543230	0.743095
	C1258	C	0.092904	0.543052	0.741791
	C1259	C	0.029072	0.542781	0.628367
	C1260	C	0.112936	0.252483	0.728926
	C1261	C	0.118923	0.190739	0.715339
	C1262	C	0.119040	0.314306	0.715324
	C1263	C	0.117344	0.252572	0.719683
	C1264	C	0.033946	0.042878	0.631534
	C1265	C	0.064218	0.251524	0.641495
	C1266	C	0.014380	0.253623	0.644354
	C1267	C	0.063209	0.253127	0.731729
	C1268	C	0.102330	0.190188	0.658688
	C1269	C	0.102246	0.313003	0.658695
	C1270	C	0.080329	0.251407	0.648615
	C1271	C	0.010158	0.253569	0.653599
	C1272	C	0.046998	0.752158	0.724611
	C1273	C	0.039637	0.813546	0.721196
	C1274	C	0.039511	0.690844	0.721232
	C1275	C	0.047077	0.253085	0.724603
	C1276	C	0.039638	0.314433	0.721197
	C1277	C	0.039735	0.191719	0.721174
	C1278	C	0.008558	0.191577	0.657964
	C1279	C	0.087739	0.189939	0.652022
	C1280	C	0.087675	0.312885	0.652028
	C1281	C	0.008489	0.315466	0.657977
	C1282	C	0.109661	0.251742	0.662099
	C1283	C	0.094985	0.043162	0.743602
	C1284	C	0.028730	0.042861	0.629948
	C1285	C	0.033995	0.962051	0.631538
	C1286	C	0.094926	0.962200	0.743588
	C1287	C	0.028807	0.962165	0.629941
	N1288	N	-0.029805	0.069874	0.692607
	N1289	N	-0.029835	0.935262	0.692603
	N1290	N	-0.029891	0.435384	0.692614
	N1291	N	-0.029856	0.569866	0.692594
	N1292	N	0.094754	0.435432	0.743068
	N1293	N	0.094791	0.569919	0.743067
	N1294	N	0.094532	0.070026	0.743092
	N1295	N	0.094506	0.935517	0.743059
	O1296	O	0.121971	0.693962	0.797449
	O1297	O	0.121759	0.810782	0.797498
	O1298	O	0.051006	0.694260	0.816124
	O1299	O	0.050964	0.811019	0.816139
	O1300	O	0.050914	0.194808	0.816168
	O1301	O	0.051128	0.311638	0.816114
	O1302	O	0.048501	0.694024	0.794935
	O1303	O	0.048373	0.810610	0.794911
	O1304	O	0.048507	0.194935	0.794936
	O1305	O	0.048269	0.311375	0.794891
	O1306	O	0.121883	0.694211	0.817622
	O1307	O	0.121757	0.811087	0.817568
	O1308	O	0.121632	0.194181	0.817641
	O1309	O	0.121895	0.311193	0.817640
	O1310	O	0.121719	0.194638	0.797483
	O1311	O	0.121944	0.311485	0.797442
	O1312	O	0.113662	0.694522	0.753602
	O1313	O	0.072474	0.693833	0.752531
	O1314	O	0.100772	0.694894	0.860485
	O1315	O	0.100531	0.811686	0.860469
	O1316	O	0.059547	0.693661	0.859912
	O1317	O	0.059188	0.810554	0.859970
	O1318	O	0.072362	0.810565	0.752513
	O1319	O	0.113414	0.811433	0.753681
	O1320	O	0.113292	0.193749	0.753706
	O1321	O	0.072253	0.194635	0.752504
	O1322	O	0.100312	0.193814	0.860483
	O1323	O	0.100842	0.310406	0.860542
	O1324	O	0.059033	0.194901	0.859982
	O1325	O	0.059590	0.311878	0.859923
	O1326	O	0.072291	0.311612	0.752505
	O1327	O	0.113488	0.310629	0.753635
	H1328	H	0.054124	0.642685	0.830163
	H1329	H	0.053787	0.862334	0.830198
	H1330	H	0.053599	0.143394	0.830241
	H1331	H	0.054245	0.363054	0.830193
	H1332	H	0.054712	0.861718	0.781170
	H1333	H	0.054686	0.642736	0.781188
	H1334	H	0.054737	0.362725	0.781145
	H1335	H	0.054974	0.143526	0.781166
	H1336	H	0.128674	0.064622	0.813095
	H1337	H	0.144186	0.064540	0.815345
	H1338	H	0.144182	0.941262	0.815324
	H1339	H	0.128739	0.940806	0.813108
	H1340	H	0.124450	0.064450	0.804383
	H1341	H	0.124488	0.940964	0.804382
	H1342	H	0.033073	0.064645	0.805838
	H1343	H	0.033155	0.941326	0.805826
	H1344	H	0.033289	0.065122	0.805446
	H1345	H	0.033350	0.941099	0.805385
	H1346	H	0.032180	0.064434	0.805002
	H1347	H	0.032006	0.941138	0.804979
	H1348	H	0.031555	0.441018	0.810072
	H1349	H	0.040327	0.441005	0.808726
	H1350	H	0.021095	0.441371	0.806854
	H1351	H	0.139245	0.441064	0.808231
	H1352	H	0.140042	0.440842	0.806801
	H1353	H	0.142570	0.441123	0.806508
	H1354	H	0.040481	0.564475	0.808713
	H1355	H	0.031585	0.564177	0.810089
	H1356	H	0.142619	0.564188	0.806527
	H1357	H	0.140014	0.564550	0.806795
	H1358	H	0.139211	0.564259	0.808181
	H1359	H	0.020983	0.565181	0.806865
	H1360	H	0.114824	0.642928	0.831392
	H1361	H	0.114389	0.862756	0.831264
	H1362	H	0.113886	0.142551	0.831262
	H1363	H	0.115027	0.362232	0.831397
	H1364	H	0.061732	0.642499	0.765793
	H1365	H	0.116879	0.643092	0.767683
	H1366	H	0.116318	0.862891	0.767751
	H1367	H	0.061793	0.861798	0.765785
	H1368	H	0.117858	0.642886	0.783418
	H1369	H	0.117310	0.862615	0.783486
	H1370	H	0.109234	0.643195	0.846921
	H1371	H	0.108789	0.863285	0.846795
	H1372	H	0.099653	0.440847	0.744004
	H1373	H	0.077001	0.440942	0.869178
	H1374	H	0.094266	0.440686	0.745261
	H1375	H	0.090230	0.440883	0.744298
	H1376	H	0.078936	0.441123	0.871665
	H1377	H	0.076435	0.440620	0.870900
	H1378	H	0.077005	0.564399	0.869129
	H1379	H	0.099717	0.564593	0.743995
	H1380	H	0.076459	0.564380	0.870876
	H1381	H	0.078930	0.564648	0.871706
	H1382	H	0.090158	0.563936	0.744271
	H1383	H	0.094192	0.564227	0.745233
	H1384	H	0.108268	0.142285	0.846799
	H1385	H	0.109410	0.362130	0.846905
	H1386	H	0.092822	0.064608	0.742569
	H1387	H	0.092483	0.063864	0.743295
	H1388	H	0.095072	0.064684	0.742328
	H1389	H	0.054780	0.862192	0.845913
	H1390	H	0.055140	0.642526	0.845907
	H1391	H	0.055155	0.363201	0.845909
	H1392	H	0.054495	0.143400	0.845953
	H1393	H	0.062120	0.143430	0.765777
	H1394	H	0.116240	0.142946	0.767742
	H1395	H	0.116563	0.362636	0.767692
	H1396	H	0.061905	0.362610	0.765751
	H1397	H	0.117235	0.143122	0.783452
	H1398	H	0.117483	0.362969	0.783432
	H1399	H	0.077629	0.064706	0.870887
	H1400	H	0.079572	0.064647	0.871225
	H1401	H	0.082019	0.064650	0.870470
	H1402	H	0.092437	0.941183	0.743238
	H1403	H	0.092789	0.941363	0.742569
	H1404	H	0.094983	0.941224	0.742298
	H1405	H	0.077669	0.941164	0.870884
	H1406	H	0.079719	0.941359	0.871216
	H1407	H	0.082028	0.940999	0.870535
	Zn1408	Zn	0.031841	0.680233	0.805593
	Zn1409	Zn	0.031959	0.825527	0.805592
	Zn1410	Zn	0.031885	0.180401	0.805591
	Zn1411	Zn	0.031884	0.325715	0.805576
	Zn1412	Zn	0.079810	0.680316	0.870221
	Zn1413	Zn	0.079500	0.825332	0.870210
	Zn1414	Zn	0.079401	0.180146	0.870198
	Zn1415	Zn	0.079791	0.325022	0.870208
	C1416	C	0.120053	0.752460	0.793850
	C1417	C	0.052351	0.752587	0.819787
	C1418	C	0.054257	0.752499	0.829244
	C1419	C	0.054356	0.690319	0.833685
	C1420	C	0.054170	0.814615	0.833694
	C1421	C	0.052380	0.253298	0.819797
	C1422	C	0.054258	0.253203	0.829263
	C1423	C	0.054048	0.191089	0.833730
	C1424	C	0.054435	0.315408	0.833702
	C1425	C	0.050325	0.752282	0.791364
	C1426	C	0.054579	0.752169	0.782121
	C1427	C	0.056246	0.814127	0.777746
	C1428	C	0.056222	0.690189	0.777763
	C1429	C	0.050311	0.253100	0.791343
	C1430	C	0.054757	0.253155	0.782104
	C1431	C	0.056343	0.315056	0.777717
	C1432	C	0.056461	0.191132	0.777740
	C1433	C	0.137947	0.043184	0.812497
	C1434	C	0.137967	0.962287	0.812504
	C1435	C	0.032927	0.043601	0.805616
	C1436	C	0.032963	0.962413	0.805583
	C1437	C	0.031745	0.043190	0.805206
	C1438	C	0.031742	0.962512	0.805196
	C1439	C	0.034979	0.462469	0.808409
	C1440	C	0.140709	0.462458	0.808358
	C1441	C	0.141495	0.462298	0.806932
	C1442	C	0.034987	0.543058	0.808411
	C1443	C	0.141544	0.543172	0.806937
	C1444	C	0.140719	0.543114	0.808352
	C1445	C	0.119367	0.752698	0.821109
	C1446	C	0.119299	0.252701	0.821140
	C1447	C	0.114681	0.752803	0.830380
	C1448	C	0.113402	0.690735	0.834824
	C1449	C	0.113165	0.815108	0.834754
	C1450	C	0.114619	0.252527	0.830400
	C1451	C	0.112897	0.190169	0.834761
	C1452	C	0.113518	0.314645	0.834828
	C1453	C	0.120036	0.253028	0.793850
	C1454	C	0.114884	0.752849	0.757280
	C1455	C	0.069051	0.752191	0.755884
	C1456	C	0.057566	0.752163	0.856331
	C1457	C	0.117439	0.690582	0.779919
	C1458	C	0.117144	0.814941	0.779969
	C1459	C	0.116843	0.752887	0.766745
	C1460	C	0.062247	0.752070	0.764876
	C1461	C	0.060065	0.690109	0.769214
	C1462	C	0.117094	0.690752	0.771187
	C1463	C	0.116767	0.814992	0.771232
	C1464	C	0.060110	0.814175	0.769200
	C1465	C	0.117461	0.752630	0.784398
	C1466	C	0.103491	0.753342	0.857007
	C1467	C	0.110462	0.690907	0.843456
	C1468	C	0.110177	0.815366	0.843383
	C1469	C	0.108768	0.753298	0.847818
	C1470	C	0.078838	0.462173	0.869284
	C1471	C	0.092913	0.462083	0.744322
	C1472	C	0.078238	0.462219	0.870994
	C1473	C	0.078890	0.543022	0.869288
	C1474	C	0.078241	0.543031	0.871000
	C1475	C	0.092943	0.542819	0.744321
	C1476	C	0.103320	0.252126	0.857024
	C1477	C	0.109891	0.190005	0.843389
	C1478	C	0.110512	0.314411	0.843453
	C1479	C	0.108684	0.252211	0.847827
	C1480	C	0.093193	0.043068	0.742963
	C1481	C	0.114734	0.252341	0.757315
	C1482	C	0.068948	0.253134	0.755852
	C1483	C	0.057481	0.253366	0.856350
	C1484	C	0.117120	0.190882	0.779963
	C1485	C	0.117279	0.315143	0.779945
	C1486	C	0.116751	0.252752	0.766767
	C1487	C	0.062315	0.253075	0.764857
	C1488	C	0.054904	0.752380	0.846888
	C1489	C	0.054573	0.814512	0.842428
	C1490	C	0.054790	0.690324	0.842417
	C1491	C	0.054796	0.253362	0.846908
	C1492	C	0.054776	0.315462	0.842432
	C1493	C	0.054378	0.191159	0.842461
	C1494	C	0.060309	0.191044	0.769196
	C1495	C	0.116674	0.190742	0.771232
	C1496	C	0.116832	0.315044	0.771209
	C1497	C	0.060204	0.315064	0.769173
	C1498	C	0.117455	0.253069	0.784406
	C1499	C	0.078877	0.043359	0.870832
	C1500	C	0.095455	0.043354	0.742681
	C1501	C	0.093157	0.962452	0.742938
	C1502	C	0.078844	0.962592	0.870829
	C1503	C	0.095390	0.962414	0.742662
	N1504	N	0.032045	0.070101	0.805536
	N1505	N	0.032072	0.935540	0.805508
	N1506	N	0.032079	0.435736	0.805566
	N1507	N	0.032039	0.570207	0.805562
	N1508	N	0.079818	0.435365	0.870219
	N1509	N	0.079817	0.570014	0.870224
	N1510	N	0.079535	0.069976	0.870190
	N1511	N	0.079562	0.935496	0.870221
	O1512	O	0.116440	0.695198	0.923901
	O1513	O	0.116436	0.811905	0.923974
	O1514	O	0.037951	0.695578	0.942975
	O1515	O	0.038065	0.812260	0.942904
	O1516	O	0.038068	0.193497	0.942939
	O1517	O	0.038128	0.310273	0.942994
	O1518	O	0.038650	0.695172	0.923067
	O1519	O	0.038152	0.811898	0.922975
	O1520	O	0.038229	0.193803	0.922968
	O1521	O	0.038497	0.310477	0.923030
	O1522	O	0.116078	0.695052	0.943932
	O1523	O	0.116216	0.811645	0.944011
	O1524	O	0.116259	0.194284	0.944015
	O1525	O	0.115996	0.311153	0.943947
	O1526	O	0.116206	0.193867	0.923982
	O1527	O	0.116360	0.310676	0.923901
	O1528	O	0.100284	0.695355	0.880442
	O1529	O	0.059347	0.694424	0.880119
	O1530	O	0.094770	0.693610	0.986854
	O1531	O	0.095219	0.810278	0.986893
	O1532	O	0.053698	0.695942	0.986474
	O1533	O	0.054238	0.812657	0.986460
	O1534	O	0.058952	0.811076	0.880066
	O1535	O	0.100154	0.812075	0.880442
	O1536	O	0.100078	0.193843	0.880417
	O1537	O	0.059138	0.194640	0.880072
	O1538	O	0.095552	0.195359	0.986920
	O1539	O	0.094568	0.312058	0.986809
	O1540	O	0.054366	0.192972	0.986423
	O1541	O	0.053671	0.309662	0.986460
	O1542	O	0.059410	0.311389	0.880119
	O1543	O	0.100280	0.310584	0.880406
	H1544	H	0.044183	0.644429	0.956873
	H1545	H	0.044217	0.864039	0.956823
	H1546	H	0.044263	0.141956	0.956845
	H1547	H	0.044183	0.361452	0.956874
	H1548	H	0.046167	0.862912	0.909342
	H1549	H	0.046608	0.643105	0.909384
	H1550	H	0.046721	0.362420	0.909398
	H1551	H	0.046197	0.142715	0.909287
	H1552	H	0.135562	0.064656	0.927899
	H1553	H	0.123984	0.064624	0.930460
	H1554	H	0.123967	0.941196	0.930472
	H1555	H	0.135604	0.941064	0.927970
	H1556	H	0.151405	0.064820	0.931737
	H1557	H	0.151393	0.941350	0.931710
	H1558	H	0.019323	0.064793	0.932737
	H1559	H	0.019322	0.941518	0.932764
	H1560	H	0.018683	0.064549	0.932182
	H1561	H	0.018613	0.941706	0.932188
	H1562	H	0.016596	0.064453	0.932123
	H1563	H	0.016513	0.940842	0.932148
	H1564	H	0.006548	0.441355	0.934382
	H1565	H	0.013919	0.440854	0.937208
	H1566	H	0.009944	0.441249	0.929091
	H1567	H	0.132776	0.440979	0.934784
	H1568	H	0.133879	0.441412	0.932890
	H1569	H	0.137372	0.440901	0.932467
	H1570	H	0.013813	0.564644	0.937214
	H1571	H	0.006522	0.564587	0.934381
	H1572	H	0.137356	0.564802	0.932454
	H1573	H	0.133915	0.564274	0.932845
	H1574	H	0.132782	0.564505	0.934821
	H1575	H	0.009969	0.564782	0.929072
	H1576	H	0.108105	0.642998	0.957601
	H1577	H	0.108478	0.862646	0.957725
	H1578	H	0.108606	0.143412	0.957711
	H1579	H	0.108177	0.363055	0.957603
	H1580	H	0.052041	0.643025	0.893872
	H1581	H	0.106754	0.643933	0.894310
	H1582	H	0.106171	0.863751	0.894375
	H1583	H	0.051656	0.862611	0.893791
	H1584	H	0.110565	0.643812	0.910004
	H1585	H	0.109930	0.863719	0.910031
	H1586	H	0.102466	0.642491	0.973116
	H1587	H	0.102837	0.862055	0.973232
	H1588	H	0.079848	0.440941	0.868735
	H1589	H	0.079150	0.441156	1.000718
	H1590	H	0.083467	0.441119	0.869839
	H1591	H	0.082939	0.441161	0.871062
	H1592	H	0.080201	0.440990	0.993000
	H1593	H	0.085219	0.441114	0.996240
	H1594	H	0.079003	0.564577	1.000711
	H1595	H	0.080106	0.564197	0.868739
	H1596	H	0.085266	0.564439	0.996220
	H1597	H	0.080227	0.564207	0.992955
	H1598	H	0.082966	0.564647	0.871066
	H1599	H	0.083538	0.564144	0.869866
	H1600	H	0.102936	0.143813	0.973196
	H1601	H	0.102379	0.363551	0.973111
	H1602	H	0.078962	0.064414	0.869187
	H1603	H	0.077269	0.064725	0.869725
	H1604	H	0.081705	0.064376	0.869646
	H1605	H	0.047888	0.864135	0.972539
	H1606	H	0.047857	0.644519	0.972539
	H1607	H	0.048013	0.361253	0.972537
	H1608	H	0.048079	0.141647	0.972532
	H1609	H	0.051647	0.143075	0.893770
	H1610	H	0.106423	0.142166	0.894356
	H1611	H	0.106746	0.361746	0.894326
	H1612	H	0.052288	0.362823	0.893881
	H1613	H	0.110106	0.142172	0.910054
	H1614	H	0.110415	0.361915	0.910007
	H1615	H	0.071391	0.064824	0.999571
	H1616	H	0.078077	0.064803	0.999628
	H1617	H	0.082548	0.064591	0.996527
	H1618	H	0.077289	0.941029	0.869725
	H1619	H	0.079010	0.941080	0.869251
	H1620	H	0.081709	0.941108	0.869685
	H1621	H	0.071385	0.941447	0.999594
	H1622	H	0.078044	0.941117	0.999617
	H1623	H	0.082559	0.941508	0.996499
	Zn1624	Zn	0.017703	0.680563	0.932780
	Zn1625	Zn	0.017334	0.825381	0.932747
	Zn1626	Zn	0.017433	0.180309	0.932747
	Zn1627	Zn	0.017675	0.325229	0.932783
	Zn1628	Zn	0.074094	0.680387	0.996661
	Zn1629	Zn	0.074709	0.825790	0.996757
	Zn1630	Zn	0.074768	0.180282	0.996710
	Zn1631	Zn	0.074088	0.325490	0.996676
	C1632	C	0.114255	0.753714	0.920356
	C1633	C	0.040235	0.754090	0.946517
	C1634	C	0.044126	0.754281	0.955901
	C1635	C	0.045095	0.692141	0.960346
	C1636	C	0.045068	0.816389	0.960335
	C1637	C	0.040327	0.251756	0.946541
	C1638	C	0.044287	0.251702	0.955916
	C1639	C	0.045210	0.189529	0.960346
	C1640	C	0.045225	0.313774	0.960358
	C1641	C	0.041080	0.753414	0.919532
	C1642	C	0.046304	0.753038	0.910333
	C1643	C	0.047608	0.815097	0.905904
	C1644	C	0.047884	0.690868	0.905936
	C1645	C	0.041049	0.252191	0.919500
	C1646	C	0.046296	0.252508	0.910295
	C1647	C	0.047929	0.314763	0.905927
	C1648	C	0.047610	0.190504	0.905866
	C1649	C	0.131671	0.043272	0.930507
	C1650	C	0.131673	0.962420	0.930508
	C1651	C	0.018633	0.043281	0.932544
	C1652	C	0.018580	0.962764	0.932553
	C1653	C	0.016515	0.043214	0.932477
	C1654	C	0.016445	0.962090	0.932479
	C1655	C	0.012222	0.462469	0.934990
	C1656	C	0.134834	0.462182	0.934990
	C1657	C	0.135930	0.462411	0.933068
	C1658	C	0.012170	0.543349	0.934993
	C1659	C	0.135932	0.543255	0.933059
	C1660	C	0.134805	0.543320	0.935005
	C1661	C	0.113533	0.753207	0.947480
	C1662	C	0.113516	0.252808	0.947475
	C1663	C	0.108588	0.752855	0.956703
	C1664	C	0.106915	0.690640	0.961072
	C1665	C	0.107149	0.814773	0.961141
	C1666	C	0.108476	0.253277	0.956698
	C1667	C	0.107172	0.191189	0.961132
	C1668	C	0.106919	0.315485	0.961084
	C1669	C	0.114117	0.252153	0.920365
	C1670	C	0.102470	0.753791	0.884027
	C1671	C	0.056672	0.752765	0.883622
	C1672	C	0.051781	0.754380	0.982881
	C1673	C	0.109575	0.691608	0.906524
	C1674	C	0.109237	0.815862	0.906552
	C1675	C	0.106509	0.753804	0.893397
	C1676	C	0.052022	0.752775	0.892871
	C1677	C	0.050785	0.690751	0.897311
	C1678	C	0.107583	0.691546	0.897815
	C1679	C	0.107248	0.815957	0.897849
	C1680	C	0.050519	0.814962	0.897278
	C1681	C	0.110349	0.753790	0.910986
	C1682	C	0.097623	0.751938	0.983370
	C1683	C	0.103919	0.690285	0.969700
	C1684	C	0.104166	0.814421	0.969768
	C1685	C	0.102620	0.752192	0.974144
	C1686	C	0.074266	0.462474	0.999665
	C1687	C	0.082297	0.462473	0.870377
	C1688	C	0.080436	0.462452	0.995141
	C1689	C	0.074248	0.543233	0.999658
	C1690	C	0.080463	0.543139	0.995139
	C1691	C	0.082318	0.543268	0.870399
	C1692	C	0.097642	0.253745	0.983371
	C1693	C	0.104182	0.191497	0.969754
	C1694	C	0.103903	0.315703	0.969707
	C1695	C	0.102633	0.253754	0.974147
	C1696	C	0.078467	0.043184	0.869652
	C1697	C	0.102469	0.252176	0.883990
	C1698	C	0.056851	0.253014	0.883614
	C1699	C	0.051877	0.251300	0.982861
	C1700	C	0.109286	0.189832	0.906557
	C1701	C	0.109426	0.314166	0.906523
	C1702	C	0.106525	0.251964	0.893372
	C1703	C	0.052102	0.252973	0.892844
	C1704	C	0.047881	0.754404	0.973503
	C1705	C	0.046981	0.816411	0.969049
	C1706	C	0.046983	0.692246	0.969056
	C1707	C	0.048017	0.251464	0.973497
	C1708	C	0.047131	0.313677	0.969064
	C1709	C	0.047121	0.189366	0.969051
	C1710	C	0.050585	0.190786	0.897241
	C1711	C	0.107344	0.189878	0.897845
	C1712	C	0.107496	0.314056	0.897814
	C1713	C	0.050922	0.314989	0.897301
	C1714	C	0.110215	0.252059	0.910990
	C1715	C	0.074734	0.043456	0.998845
	C1716	C	0.081256	0.043247	0.870114
	C1717	C	0.078485	0.962285	0.869673
	C1718	C	0.074733	0.962458	0.998834
	C1719	C	0.081228	0.962314	0.870114
	N1720	N	0.017518	0.070022	0.932757
	N1721	N	0.017440	0.935506	0.932759
	N1722	N	0.017777	0.435595	0.932741
	N1723	N	0.017734	0.570156	0.932739
	N1724	N	0.073975	0.435691	0.996682
	N1725	N	0.073983	0.570220	0.996657
	N1726	N	0.074685	0.070154	0.996736
	N1727	N	0.074666	0.935708	0.996733
	O1728	O	0.228037	0.694146	0.052123
	O1729	O	0.228131	0.810974	0.052099
	O1730	O	0.150072	0.694004	0.071070
	O1731	O	0.149620	0.810574	0.071179
	O1732	O	0.149607	0.194900	0.071128
	O1733	O	0.149946	0.311628	0.071067
	O1734	O	0.150188	0.694490	0.051029
	O1735	O	0.150342	0.811372	0.051097
	O1736	O	0.150477	0.194488	0.051122
	O1737	O	0.150062	0.311187	0.051035
	O1738	O	0.227776	0.694591	0.072154
	O1739	O	0.227628	0.811300	0.072088
	O1740	O	0.227519	0.194165	0.072129
	O1741	O	0.227816	0.310886	0.072193
	O1742	O	0.228025	0.194457	0.052127
	O1743	O	0.227866	0.311281	0.052148
	O1744	O	0.211955	0.693508	0.008589
	O1745	O	0.171119	0.694870	0.008155
	O1746	O	0.206926	0.695572	0.115064
	O1747	O	0.206564	0.812167	0.114998
	O1748	O	0.166011	0.693533	0.114603
	O1749	O	0.165527	0.810243	0.114683
	O1750	O	0.171202	0.811536	0.008156
	O1751	O	0.212222	0.810372	0.008569
	O1752	O	0.212264	0.195035	0.008590
	O1753	O	0.171322	0.193849	0.008179
	O1754	O	0.206364	0.192922	0.115006
	O1755	O	0.207090	0.309674	0.115125
	O1756	O	0.165582	0.195343	0.114648
	O1757	O	0.166142	0.312233	0.114581
	O1758	O	0.171036	0.310715	0.008174
	O1759	O	0.211846	0.311767	0.008651
	H1760	H	0.156586	0.642296	0.084962
	H1761	H	0.155185	0.861905	0.085103
	H1762	H	0.155377	0.143895	0.085070
	H1763	H	0.156135	0.363550	0.085016
	H1764	H	0.158253	0.863044	0.037416
	H1765	H	0.157840	0.643194	0.037335
	H1766	H	0.157758	0.362229	0.037374
	H1767	H	0.157895	0.142243	0.037389
	H1768	H	0.261110	0.064266	0.064592
	H1769	H	0.260709	0.064841	0.060033
	H1770	H	0.260631	0.940933	0.060059
	H1771	H	0.261103	0.941604	0.064570
	H1772	H	0.247728	0.064448	0.067780
	H1773	H	0.247722	0.941124	0.067755
	H1774	H	0.112974	0.064264	0.055385
	H1775	H	0.113117	0.941012	0.055364
	H1776	H	0.108697	0.064776	0.062178
	H1777	H	0.108579	0.940814	0.062160
	H1778	H	0.125901	0.064555	0.069067
	H1779	H	0.126079	0.940969	0.069087
	H1780	H	0.122492	0.441105	0.062867
	H1781	H	0.129119	0.441029	0.064204
	H1782	H	0.121958	0.441087	0.058901
	H1783	H	0.247510	0.440999	0.067354
	H1784	H	0.236234	0.440865	0.063617
	H1785	H	0.237958	0.440944	0.059460
	H1786	H	0.129067	0.564407	0.064155
	H1787	H	0.122617	0.564250	0.062846
	H1788	H	0.237894	0.563884	0.059428
	H1789	H	0.236327	0.564612	0.063618
	H1790	H	0.247571	0.564466	0.067318
	H1791	H	0.121974	0.564516	0.058912
	H1792	H	0.220155	0.643196	0.085868
	H1793	H	0.219577	0.862909	0.085735
	H1794	H	0.219195	0.142529	0.085760
	H1795	H	0.220664	0.361839	0.085938
	H1796	H	0.163415	0.643331	0.021841
	H1797	H	0.218079	0.642394	0.022522
	H1798	H	0.218552	0.862043	0.022484
	H1799	H	0.163759	0.863016	0.021892
	H1800	H	0.221662	0.642657	0.038237
	H1801	H	0.222083	0.862444	0.038163
	H1802	H	0.214654	0.643732	0.101389
	H1803	H	0.213985	0.863277	0.101269
	H1804	H	0.185016	0.441152	-0.004872
	H1805	H	0.199148	0.441509	0.127857
	H1806	H	0.196759	0.441033	-0.005048
	H1807	H	0.201457	0.440700	-0.002187
	H1808	H	0.186279	0.441069	0.119090
	H1809	H	0.197478	0.440920	0.121219
	H1810	H	0.199058	0.564734	0.127843
	H1811	H	0.185187	0.564290	-0.004856
	H1812	H	0.197438	0.564430	0.121252
	H1813	H	0.186273	0.563927	0.119137
	H1814	H	0.201532	0.564131	-0.002198
	H1815	H	0.196771	0.564176	-0.005040
	H1816	H	0.213663	0.142189	0.101279
	H1817	H	0.215230	0.361279	0.101473
	H1818	H	0.195941	0.064437	0.001336
	H1819	H	0.200292	0.064170	-0.000915
	H1820	H	0.186081	0.064574	0.000806
	H1821	H	0.158749	0.861804	0.100754
	H1822	H	0.160236	0.642064	0.100657
	H1823	H	0.159894	0.363623	0.100704
	H1824	H	0.159122	0.143978	0.100735
	H1825	H	0.163524	0.142252	0.021854
	H1826	H	0.218460	0.143364	0.022510
	H1827	H	0.217783	0.363180	0.022580
	H1828	H	0.163369	0.362151	0.021854
	H1829	H	0.222088	0.143166	0.038190
	H1830	H	0.221429	0.362864	0.038253
	H1831	H	0.187514	0.064238	0.123388
	H1832	H	0.183840	0.064317	0.123438
	H1833	H	0.181672	0.064552	0.125113
	H1834	H	0.200288	0.940848	-0.000947
	H1835	H	0.196036	0.941142	0.001359
	H1836	H	0.186098	0.940963	0.000847
	H1837	H	0.187412	0.940605	0.123390
	H1838	H	0.183934	0.940646	0.123407
	H1839	H	0.181663	0.941236	0.125109
	Zn1840	Zn	0.129537	0.680340	0.060824
	Zn1841	Zn	0.129503	0.825313	0.060843
	Zn1842	Zn	0.129531	0.180298	0.060869
	Zn1843	Zn	0.129464	0.325134	0.060820
	Zn1844	Zn	0.186436	0.680410	0.124885
	Zn1845	Zn	0.185969	0.824948	0.124891
	Zn1846	Zn	0.185860	0.180390	0.124890
	Zn1847	Zn	0.186401	0.324961	0.124861
	C1848	C	0.225804	0.752543	0.048540
	C1849	C	0.152101	0.752156	0.074708
	C1850	C	0.155940	0.752144	0.084079
	C1851	C	0.157180	0.689903	0.088476
	C1852	C	0.156351	0.814120	0.088557
	C1853	C	0.151968	0.253339	0.074679
	C1854	C	0.155837	0.253745	0.084064
	C1855	C	0.156493	0.191702	0.088525
	C1856	C	0.156960	0.315855	0.088504
	C1857	C	0.152912	0.753059	0.047572
	C1858	C	0.157832	0.753042	0.038345
	C1859	C	0.159444	0.815265	0.033960
	C1860	C	0.159224	0.690971	0.033915
	C1861	C	0.152886	0.252714	0.047582
	C1862	C	0.157860	0.252288	0.038348
	C1863	C	0.159235	0.314465	0.033936
	C1864	C	0.159261	0.190016	0.033940
	C1865	C	0.257618	0.043242	0.062325
	C1866	C	0.257621	0.962450	0.062322
	C1867	C	0.115739	0.043328	0.059321
	C1868	C	0.115722	0.962487	0.059306
	C1869	C	0.133215	0.043054	0.066283
	C1870	C	0.133210	0.962411	0.066282
	C1871	C	0.126752	0.462297	0.062806
	C1872	C	0.251451	0.462406	0.065524
	C1873	C	0.240079	0.462129	0.061761
	C1874	C	0.126731	0.543107	0.062789
	C1875	C	0.240081	0.542974	0.061751
	C1876	C	0.251458	0.542999	0.065503
	C1877	C	0.224984	0.753026	0.075608
	C1878	C	0.225006	0.252465	0.075652
	C1879	C	0.219938	0.753112	0.084830
	C1880	C	0.218692	0.691062	0.089274
	C1881	C	0.218341	0.815298	0.089202
	C1882	C	0.220070	0.252269	0.084867
	C1883	C	0.218237	0.190127	0.089236
	C1884	C	0.219058	0.314073	0.089339
	C1885	C	0.225761	0.252895	0.048554
	C1886	C	0.214321	0.751921	0.012158
	C1887	C	0.168544	0.753189	0.011650
	C1888	C	0.163535	0.751941	0.111062
	C1889	C	0.220952	0.690267	0.034737
	C1890	C	0.221218	0.814614	0.034697
	C1891	C	0.218196	0.752156	0.021551
	C1892	C	0.163715	0.753155	0.020896
	C1893	C	0.162172	0.691008	0.025288
	C1894	C	0.219046	0.690080	0.026018
	C1895	C	0.219282	0.814393	0.025986
	C1896	C	0.162415	0.815285	0.025327
	C1897	C	0.221976	0.752544	0.039158
	C1898	C	0.209289	0.753829	0.111515
	C1899	C	0.215759	0.691274	0.097903
	C1900	C	0.215379	0.815506	0.097825
	C1901	C	0.214063	0.753584	0.102274
	C1902	C	0.192078	0.462500	0.128075
	C1903	C	0.197117	0.462114	-0.003096
	C1904	C	0.190413	0.462265	0.121409
	C1905	C	0.192087	0.543146	0.128055
	C1906	C	0.190416	0.543084	0.121426
	C1907	C	0.197111	0.543036	-0.003097
	C1908	C	0.209315	0.251390	0.111555
	C1909	C	0.215291	0.189939	0.097861
	C1910	C	0.216128	0.313864	0.097962
	C1911	C	0.214211	0.251797	0.102310
	C1912	C	0.196467	0.042928	-0.000291
	C1913	C	0.214264	0.253340	0.012207
	C1914	C	0.168587	0.252210	0.011670
	C1915	C	0.163572	0.253785	0.111044
	C1916	C	0.221082	0.190959	0.034721
	C1917	C	0.220718	0.315213	0.034759
	C1918	C	0.218139	0.253222	0.021587
	C1919	C	0.163649	0.252133	0.020897
	C1920	C	0.159661	0.751887	0.101681
	C1921	C	0.158245	0.814041	0.097261
	C1922	C	0.159080	0.689888	0.097189
	C1923	C	0.159623	0.253798	0.101661
	C1924	C	0.158884	0.315985	0.097214
	C1925	C	0.158405	0.191645	0.097231
	C1926	C	0.162138	0.189939	0.025304
	C1927	C	0.219152	0.191044	0.026011
	C1928	C	0.218808	0.315337	0.026044
	C1929	C	0.162143	0.314374	0.025304
	C1930	C	0.221854	0.252982	0.039186
	C1931	C	0.185728	0.043036	0.123798
	C1932	C	0.186511	0.043322	-0.000822
	C1933	C	0.196455	0.962182	-0.000283
	C1934	C	0.185749	0.962170	0.123788
	C1935	C	0.186520	0.962238	-0.000800
	N1936	N	0.129460	0.070041	0.060841
	N1937	N	0.129456	0.935476	0.060818
	N1938	N	0.129304	0.435520	0.060767
	N1939	N	0.129334	0.570078	0.060752
	N1940	N	0.186393	0.435401	0.124892
	N1941	N	0.186451	0.570041	0.124876
	N1942	N	0.185852	0.069990	0.124930
	N1943	N	0.185924	0.935385	0.124925
	O1944	O	0.221011	0.693823	0.178753
	O1945	O	0.220558	0.810530	0.178871
	O1946	O	0.143910	0.695251	0.197623
	O1947	O	0.143380	0.811954	0.197657
	O1948	O	0.143364	0.192741	0.197662
	O1949	O	0.143936	0.309500	0.197629
	O1950	O	0.144374	0.695593	0.177613
	O1951	O	0.143653	0.812180	0.177508
	O1952	O	0.143569	0.192978	0.177432
	O1953	O	0.144280	0.309645	0.177607
	O1954	O	0.220674	0.693600	0.198948
	O1955	O	0.220101	0.810366	0.198895
	O1956	O	0.220168	0.195114	0.198919
	O1957	O	0.220531	0.311803	0.198932
	O1958	O	0.220577	0.195098	0.178843
	O1959	O	0.221009	0.311736	0.178725
	O1960	O	0.206634	0.695096	0.135168
	O1961	O	0.165726	0.693592	0.134725
	O1962	O	0.198924	0.693983	0.241803
	O1963	O	0.198602	0.810750	0.241709
	O1964	O	0.157776	0.694546	0.241198
	O1965	O	0.157638	0.811432	0.241247
	O1966	O	0.165088	0.810307	0.134635
	O1967	O	0.205949	0.811913	0.135250
	O1968	O	0.205907	0.193757	0.135209
	O1969	O	0.165116	0.195208	0.134622
	O1970	O	0.198644	0.194935	0.241719
	O1971	O	0.198834	0.311744	0.241787
	O1972	O	0.157744	0.193924	0.241237
	O1973	O	0.157817	0.310816	0.241147
	O1974	O	0.165612	0.311848	0.134702
	O1975	O	0.206537	0.310435	0.135160
	H1976	H	0.149717	0.643931	0.211520
	H1977	H	0.148644	0.863321	0.211618
	H1978	H	0.148506	0.141038	0.211668
	H1979	H	0.149910	0.360905	0.211487
	H1980	H	0.151160	0.863320	0.163760
	H1981	H	0.152620	0.643461	0.163974
	H1982	H	0.152431	0.361610	0.163969
	H1983	H	0.150597	0.142243	0.163664
	H1984	H	0.240769	0.064256	0.193798
	H1985	H	0.249820	0.064940	0.192292
	H1986	H	0.249873	0.941405	0.192277
	H1987	H	0.240787	0.941104	0.193796
	H1988	H	0.229850	0.064241	0.190527
	H1989	H	0.229814	0.941032	0.190547
	H1990	H	0.123473	0.064315	0.192956
	H1991	H	0.123497	0.941432	0.192968
	H1992	H	0.134144	0.064479	0.190920
	H1993	H	0.134146	0.941012	0.190932
	H1994	H	0.134958	0.064633	0.184499
	H1995	H	0.135023	0.940854	0.184509
	H1996	H	0.113360	0.440781	0.188480
	H1997	H	0.119205	0.440980	0.191178
	H1998	H	0.117331	0.440816	0.183877
	H1999	H	0.247415	0.441352	0.192963
	H2000	H	0.234291	0.440925	0.192604
	H2001	H	0.229798	0.441331	0.189183
	H2002	H	0.119200	0.564353	0.191229
	H2003	H	0.113252	0.564157	0.188476
	H2004	H	0.229954	0.564714	0.189209
	H2005	H	0.234333	0.564812	0.192586
	H2006	H	0.247516	0.564512	0.192956
	H2007	H	0.117210	0.564282	0.183872
	H2008	H	0.213079	0.642216	0.212649
	H2009	H	0.212095	0.861905	0.212564
	H2010	H	0.211891	0.144036	0.212544
	H2011	H	0.213397	0.363296	0.212676
	H2012	H	0.158379	0.642721	0.148474
	H2013	H	0.212663	0.643375	0.149053
	H2014	H	0.211273	0.863044	0.149252
	H2015	H	0.156899	0.862185	0.148250
	H2016	H	0.215856	0.642682	0.164759
	H2017	H	0.214463	0.862359	0.164935
	H2018	H	0.207215	0.642412	0.228147
	H2019	H	0.206291	0.861902	0.228059
	H2020	H	0.189135	0.441298	0.130601
	H2021	H	0.168137	0.440496	0.251032
	H2022	H	0.173890	0.440762	0.127709
	H2023	H	0.172582	0.440992	0.122895
	H2024	H	0.181788	0.441104	0.255012
	H2025	H	0.173610	0.440957	0.254968
	H2026	H	0.168119	0.564839	0.251054
	H2027	H	0.189127	0.564691	0.130527
	H2028	H	0.173594	0.564277	0.254916
	H2029	H	0.181792	0.563844	0.255048
	H2030	H	0.172771	0.564324	0.122880
	H2031	H	0.173924	0.564705	0.127681
	H2032	H	0.205974	0.143843	0.228034
	H2033	H	0.207455	0.363248	0.228168
	H2034	H	0.188399	0.064313	0.126297
	H2035	H	0.190104	0.064406	0.125022
	H2036	H	0.183630	0.064464	0.126313
	H2037	H	0.151719	0.863073	0.227327
	H2038	H	0.152847	0.643606	0.227225
	H2039	H	0.152964	0.361583	0.227177
	H2040	H	0.151698	0.141690	0.227375
	H2041	H	0.156471	0.143321	0.148176
	H2042	H	0.211580	0.142407	0.149209
	H2043	H	0.212384	0.361936	0.149099
	H2044	H	0.158282	0.362655	0.148474
	H2045	H	0.214711	0.142957	0.164925
	H2046	H	0.215473	0.362475	0.164779
	H2047	H	0.169988	0.064514	0.247372
	H2048	H	0.164952	0.064805	0.251117
	H2049	H	0.172862	0.064194	0.256205
	H2050	H	0.190171	0.940692	0.125017
	H2051	H	0.188541	0.940983	0.126289
	H2052	H	0.183596	0.941457	0.126311
	H2053	H	0.170118	0.940940	0.247365
	H2054	H	0.164884	0.940959	0.251109
	H2055	H	0.172900	0.941116	0.256187
	Zn2056	Zn	0.123594	0.679895	0.187383
	Zn2057	Zn	0.123035	0.825285	0.187379
	Zn2058	Zn	0.122982	0.179972	0.187330
	Zn2059	Zn	0.123573	0.325293	0.187406
	Zn2060	Zn	0.177818	0.679825	0.251506
	Zn2061	Zn	0.177847	0.825157	0.251498
	Zn2062	Zn	0.177934	0.180446	0.251524
	Zn2063	Zn	0.177827	0.325353	0.251531
	C2064	C	0.218668	0.752285	0.175217
	C2065	C	0.145687	0.753663	0.201232
	C2066	C	0.149211	0.753682	0.210626
	C2067	C	0.150213	0.691477	0.215038
	C2068	C	0.149594	0.815714	0.215098
	C2069	C	0.145686	0.251060	0.201239
	C2070	C	0.149241	0.250949	0.210636
	C2071	C	0.149579	0.188921	0.215123
	C2072	C	0.150331	0.313333	0.215017
	C2073	C	0.146612	0.753872	0.174062
	C2074	C	0.151656	0.753428	0.164836
	C2075	C	0.152796	0.815334	0.160366
	C2076	C	0.153625	0.691085	0.160492
	C2077	C	0.146474	0.251505	0.174015
	C2078	C	0.151467	0.251930	0.164799
	C2079	C	0.153393	0.314246	0.160465
	C2080	C	0.152394	0.190191	0.160294
	C2081	C	0.244137	0.043427	0.192009
	C2082	C	0.244168	0.962568	0.192005
	C2083	C	0.127241	0.043207	0.190723
	C2084	C	0.127250	0.962431	0.190749
	C2085	C	0.128129	0.043221	0.184263
	C2086	C	0.128173	0.962152	0.184279
	C2087	C	0.118192	0.462215	0.189178
	C2088	C	0.247760	0.462661	0.190792
	C2089	C	0.234508	0.462432	0.190427
	C2090	C	0.118180	0.543059	0.189198
	C2091	C	0.234530	0.543403	0.190427
	C2092	C	0.247766	0.543272	0.190783
	C2093	C	0.217783	0.751937	0.202421
	C2094	C	0.217764	0.253527	0.202429
	C2095	C	0.212730	0.752062	0.211642
	C2096	C	0.211515	0.690030	0.216076
	C2097	C	0.210989	0.814214	0.216022
	C2098	C	0.212687	0.253657	0.211651
	C2099	C	0.210813	0.191580	0.216010
	C2100	C	0.211664	0.315677	0.216087
	C2101	C	0.218683	0.253238	0.175195
	C2102	C	0.208405	0.753464	0.138795
	C2103	C	0.162775	0.752012	0.138185
	C2104	C	0.155682	0.753086	0.237640
	C2105	C	0.214740	0.690493	0.161307
	C2106	C	0.213922	0.814763	0.161416
	C2107	C	0.211979	0.753291	0.148194
	C2108	C	0.157684	0.752450	0.147393
	C2109	C	0.156693	0.690629	0.151869
	C2110	C	0.213152	0.690936	0.152585
	C2111	C	0.212318	0.815142	0.152700
	C2112	C	0.155848	0.814755	0.151746
	C2113	C	0.215056	0.752430	0.165813
	C2114	C	0.201459	0.752240	0.238271
	C2115	C	0.208440	0.690062	0.224690
	C2116	C	0.207930	0.814259	0.224639
	C2117	C	0.206723	0.752181	0.229075
	C2118	C	0.172129	0.462065	0.250167
	C2119	C	0.176689	0.462304	0.125183
	C2120	C	0.177716	0.462356	0.254081
	C2121	C	0.172147	0.543118	0.250162
	C2122	C	0.177704	0.542793	0.254078
	C2123	C	0.176787	0.543294	0.125180
	C2124	C	0.201361	0.253453	0.238264
	C2125	C	0.207700	0.191550	0.224625
	C2126	C	0.208514	0.315631	0.224701
	C2127	C	0.206595	0.253612	0.229073
	C2128	C	0.188385	0.043120	0.125460
	C2129	C	0.208354	0.252090	0.138781
	C2130	C	0.162693	0.253528	0.138163
	C2131	C	0.155733	0.252192	0.237609
	C2132	C	0.214052	0.190550	0.161391
	C2133	C	0.214507	0.314603	0.161327
	C2134	C	0.211929	0.252109	0.148181
	C2135	C	0.157561	0.253118	0.147370
	C2136	C	0.152148	0.753288	0.228243
	C2137	C	0.151149	0.815484	0.223816
	C2138	C	0.151740	0.691332	0.223757
	C2139	C	0.152222	0.251713	0.228230
	C2140	C	0.151911	0.313685	0.223733
	C2141	C	0.151187	0.189278	0.223841
	C2142	C	0.155535	0.190750	0.151680
	C2143	C	0.212450	0.190240	0.152667
	C2144	C	0.212911	0.314291	0.152606
	C2145	C	0.156495	0.314787	0.151851
	C2146	C	0.214994	0.252738	0.165811
	C2147	C	0.170204	0.043332	0.249838
	C2148	C	0.183499	0.043141	0.125513
	C2149	C	0.188458	0.962125	0.125452
	C2150	C	0.170215	0.962381	0.249842
	C2151	C	0.183497	0.962469	0.125498
	N2152	N	0.122995	0.069921	0.187364
	N2153	N	0.123013	0.935394	0.187375
	N2154	N	0.123574	0.435459	0.187382
	N2155	N	0.123616	0.569932	0.187391
	N2156	N	0.177745	0.435390	0.251502
	N2157	N	0.177733	0.569828	0.251482
	N2158	N	0.177916	0.070056	0.251511
	N2159	N	0.177878	0.935478	0.251495
	O2160	O	0.214612	0.694705	0.305183
	O2161	O	0.214793	0.811412	0.305178
	O2162	O	0.135797	0.693790	0.324276
	O2163	O	0.135955	0.810423	0.324271
	O2164	O	0.135952	0.194890	0.324291
	O2165	O	0.135857	0.311647	0.324247
	O2166	O	0.136329	0.694055	0.304244
	O2167	O	0.136344	0.810640	0.304259
	O2168	O	0.136423	0.194911	0.304302
	O2169	O	0.136315	0.311690	0.304288
	O2170	O	0.214036	0.695189	0.325229
	O2171	O	0.214532	0.811977	0.325264
	O2172	O	0.214441	0.193588	0.325194
	O2173	O	0.214107	0.310272	0.325158
	O2174	O	0.214722	0.193775	0.305210
	O2175	O	0.214499	0.310361	0.305258
	O2176	O	0.198352	0.693882	0.261711
	O2177	O	0.157295	0.694794	0.261328
	O2178	O	0.193224	0.695133	0.368153
	O2179	O	0.193007	0.811949	0.368095
	O2180	O	0.152291	0.693592	0.367788
	O2181	O	0.152155	0.810401	0.367775
	O2182	O	0.157568	0.811403	0.261392
	O2183	O	0.198558	0.810584	0.261651
	O2184	O	0.198502	0.194825	0.261719
	O2185	O	0.157444	0.194039	0.261437
	O2186	O	0.192982	0.193237	0.368057
	O2187	O	0.192943	0.310061	0.368030
	O2188	O	0.152278	0.194877	0.367772
	O2189	O	0.152266	0.311589	0.367774
	O2190	O	0.157221	0.310786	0.261332
	O2191	O	0.198389	0.311543	0.261756
	H2192	H	0.141931	0.642410	0.338236
	H2193	H	0.142195	0.861737	0.338221
	H2194	H	0.141897	0.143414	0.338215
	H2195	H	0.142392	0.363261	0.338160
	H2196	H	0.143912	0.862163	0.290556
	H2197	H	0.144035	0.642764	0.290523
	H2198	H	0.144160	0.362946	0.290575
	H2199	H	0.144541	0.143227	0.290641
	H2200	H	0.254943	0.064261	0.313779
	H2201	H	0.244362	0.064044	0.308375
	H2202	H	0.244482	0.941206	0.308355
	H2203	H	0.254929	0.940773	0.313815
	H2204	H	0.246144	0.064491	0.322250
	H2205	H	0.246067	0.940913	0.322263
	H2206	H	0.111834	0.063865	0.317619
	H2207	H	0.111808	0.940585	0.317601
	H2208	H	0.120048	0.063996	0.317506
	H2209	H	0.120024	0.940543	0.317500
	H2210	H	0.125265	0.064424	0.313631
	H2211	H	0.125270	0.940745	0.313606
	H2212	H	0.111474	0.441171	0.317603
	H2213	H	0.119786	0.440921	0.317514
	H2214	H	0.105364	0.440564	0.313777
	H2215	H	0.237299	0.441185	0.314996
	H2216	H	0.236984	0.441255	0.316264
	H2217	H	0.234702	0.440805	0.316595
	H2218	H	0.119761	0.564403	0.317490
	H2219	H	0.111573	0.564547	0.317613
	H2220	H	0.234831	0.564726	0.316594
	H2221	H	0.236849	0.564028	0.316265
	H2222	H	0.237488	0.564328	0.315005
	H2223	H	0.105364	0.564438	0.313785
	H2224	H	0.205996	0.643758	0.338893
	H2225	H	0.206149	0.863612	0.338859
	H2226	H	0.205765	0.141639	0.338775
	H2227	H	0.206099	0.361770	0.338803
	H2228	H	0.149744	0.643048	0.275023
	H2229	H	0.204406	0.643191	0.275623
	H2230	H	0.204816	0.862557	0.275603
	H2231	H	0.149635	0.862231	0.275036
	H2232	H	0.208250	0.643398	0.291307
	H2233	H	0.208569	0.862511	0.291283
	H2234	H	0.200236	0.643612	0.354392
	H2235	H	0.200375	0.863620	0.354370
	H2236	H	0.172100	0.441338	0.248318
	H2237	H	0.175725	0.441028	0.377345
	H2238	H	0.183327	0.440960	0.248452
	H2239	H	0.187344	0.440690	0.251267
	H2240	H	0.169979	0.440729	0.377312
	H2241	H	0.172206	0.440570	0.376712
	H2242	H	0.175736	0.564254	0.377335
	H2243	H	0.172231	0.564202	0.248315
	H2244	H	0.172218	0.564472	0.376703
	H2245	H	0.170008	0.564423	0.377322
	H2246	H	0.187418	0.564535	0.251271
	H2247	H	0.183403	0.564192	0.248425
	H2248	H	0.200033	0.141466	0.354288
	H2249	H	0.200349	0.361608	0.354319
	H2250	H	0.190750	0.064584	0.251005
	H2251	H	0.184953	0.064690	0.247285
	H2252	H	0.183794	0.064230	0.256174
	H2253	H	0.145971	0.861814	0.353897
	H2254	H	0.145680	0.642153	0.353904
	H2255	H	0.146128	0.363140	0.353871
	H2256	H	0.145549	0.143486	0.353882
	H2257	H	0.150045	0.142990	0.275122
	H2258	H	0.204663	0.143150	0.275629
	H2259	H	0.204370	0.362556	0.275680
	H2260	H	0.149539	0.362707	0.275048
	H2261	H	0.208472	0.142875	0.291313
	H2262	H	0.208218	0.362231	0.291358
	H2263	H	0.177635	0.064234	0.375760
	H2264	H	0.171422	0.064207	0.375011
	H2265	H	0.165062	0.064038	0.377381
	H2266	H	0.184942	0.941227	0.247309
	H2267	H	0.190687	0.941022	0.250990
	H2268	H	0.183731	0.940907	0.256115
	H2269	H	0.177615	0.940820	0.375811
	H2270	H	0.171412	0.940531	0.375022
	H2271	H	0.164938	0.941101	0.377376
	Zn2272	Zn	0.115397	0.680176	0.313995
	Zn2273	Zn	0.115602	0.824857	0.314060
	Zn2274	Zn	0.115597	0.180176	0.314060
	Zn2275	Zn	0.115287	0.325043	0.314014
	Zn2276	Zn	0.172944	0.680014	0.377999
	Zn2277	Zn	0.172595	0.825017	0.378008
	Zn2278	Zn	0.172647	0.179970	0.377975
	Zn2279	Zn	0.172922	0.324876	0.377986
	C2280	C	0.212469	0.753053	0.301601
	C2281	C	0.138119	0.752072	0.327861
	C2282	C	0.142104	0.752104	0.337240
	C2283	C	0.142919	0.690069	0.341711
	C2284	C	0.143063	0.814086	0.341700
	C2285	C	0.138163	0.253361	0.327842
	C2286	C	0.142151	0.253382	0.337227
	C2287	C	0.142898	0.191180	0.341682
	C2288	C	0.143212	0.315562	0.341654
	C2289	C	0.138920	0.752364	0.300740
	C2290	C	0.144033	0.752433	0.291535
	C2291	C	0.145384	0.814461	0.287120
	C2292	C	0.145446	0.690556	0.287100
	C2293	C	0.139021	0.253286	0.300817
	C2294	C	0.144141	0.253116	0.291597
	C2295	C	0.145476	0.315063	0.287153
	C2296	C	0.145735	0.190909	0.287196
	C2297	C	0.245851	0.043139	0.312232
	C2298	C	0.245869	0.962348	0.312223
	C2299	C	0.115826	0.042782	0.316638
	C2300	C	0.115850	0.962038	0.316638
	C2301	C	0.121038	0.043077	0.312696
	C2302	C	0.121042	0.962180	0.312698
	C2303	C	0.115532	0.462300	0.316624
	C2304	C	0.236030	0.462366	0.314919
	C2305	C	0.235567	0.462289	0.316180
	C2306	C	0.115533	0.543034	0.316611
	C2307	C	0.235613	0.543032	0.316197
	C2308	C	0.236029	0.543334	0.314909
	C2309	C	0.211527	0.753643	0.328729
	C2310	C	0.211525	0.251908	0.328661
	C2311	C	0.206194	0.753665	0.337911
	C2312	C	0.204637	0.691508	0.342325
	C2313	C	0.204691	0.815863	0.342304
	C2314	C	0.206208	0.251736	0.337857
	C2315	C	0.204507	0.189404	0.342246
	C2316	C	0.204688	0.313953	0.342256
	C2317	C	0.212343	0.252160	0.301652
	C2318	C	0.200650	0.752370	0.265269
	C2319	C	0.154927	0.753008	0.264877
	C2320	C	0.149930	0.751943	0.364212
	C2321	C	0.207466	0.690942	0.287798
	C2322	C	0.207664	0.814950	0.287793
	C2323	C	0.204681	0.752780	0.274646
	C2324	C	0.150004	0.752666	0.274099
	C2325	C	0.148508	0.690642	0.278482
	C2326	C	0.205478	0.690868	0.279094
	C2327	C	0.205684	0.814852	0.279084
	C2328	C	0.148437	0.814601	0.278497
	C2329	C	0.208481	0.752964	0.292249
	C2330	C	0.195512	0.753518	0.364600
	C2331	C	0.201600	0.691467	0.350945
	C2332	C	0.201632	0.815866	0.350923
	C2333	C	0.200203	0.753657	0.355344
	C2334	C	0.175080	0.462327	0.377910
	C2335	C	0.183363	0.462085	0.250297
	C2336	C	0.171605	0.462059	0.377275
	C2337	C	0.175069	0.542932	0.377899
	C2338	C	0.171596	0.543223	0.377260
	C2339	C	0.183404	0.543175	0.250301
	C2340	C	0.195470	0.251606	0.364532
	C2341	C	0.201455	0.189355	0.350866
	C2342	C	0.201660	0.313799	0.350877
	C2343	C	0.200174	0.251554	0.355293
	C2344	C	0.185233	0.043107	0.249765
	C2345	C	0.200636	0.253131	0.265314
	C2346	C	0.154809	0.252542	0.264904
	C2347	C	0.149981	0.253236	0.364203
	C2348	C	0.207494	0.190525	0.287832
	C2349	C	0.207350	0.314656	0.287856
	C2350	C	0.204582	0.252852	0.274686
	C2351	C	0.149957	0.252807	0.274152
	C2352	C	0.145899	0.751996	0.354847
	C2353	C	0.145011	0.814115	0.350411
	C2354	C	0.144890	0.689896	0.350414
	C2355	C	0.146001	0.253299	0.354829
	C2356	C	0.145182	0.315481	0.350366
	C2357	C	0.144864	0.191154	0.350390
	C2358	C	0.148722	0.190700	0.278571
	C2359	C	0.205564	0.190694	0.279120
	C2360	C	0.205429	0.314833	0.279145
	C2361	C	0.148447	0.315086	0.278532
	C2362	C	0.208353	0.252475	0.292282
	C2363	C	0.174013	0.043192	0.376094
	C2364	C	0.178199	0.043190	0.254957
	C2365	C	0.185188	0.962314	0.249781
	C2366	C	0.174006	0.962007	0.376094
	C2367	C	0.178154	0.962335	0.254940
	N2368	N	0.115526	0.069848	0.314062
	N2369	N	0.115546	0.935298	0.314060
	N2370	N	0.115188	0.435201	0.314006
	N2371	N	0.115210	0.569810	0.314014
	N2372	N	0.172877	0.435160	0.377980
	N2373	N	0.172892	0.569710	0.377974
	N2374	N	0.172527	0.069886	0.378017
	N2375	N	0.172516	0.935362	0.378039
	O2376	O	0.201480	0.694404	0.432071
	O2377	O	0.201460	0.811334	0.432032
	O2378	O	0.130734	0.693865	0.450743
	O2379	O	0.130921	0.810735	0.450735
	O2380	O	0.130890	0.194392	0.450755
	O2381	O	0.130817	0.311280	0.450779
	O2382	O	0.130852	0.693745	0.430675
	O2383	O	0.130829	0.810691	0.430616
	O2384	O	0.130733	0.194825	0.430628
	O2385	O	0.130669	0.311395	0.430587
	O2386	O	0.203724	0.694499	0.453257
	O2387	O	0.203547	0.811262	0.453205
	O2388	O	0.203815	0.193939	0.453253
	O2389	O	0.203816	0.310339	0.453307
	O2390	O	0.201558	0.193343	0.432049
	O2391	O	0.201414	0.310220	0.432074
	O2392	O	0.193157	0.694842	0.388285
	O2393	O	0.152053	0.693459	0.387727
	O2394	O	0.180486	0.694562	0.495794
	O2395	O	0.180177	0.811356	0.495688
	O2396	O	0.139056	0.693148	0.494583
	O2397	O	0.139110	0.810171	0.494569
	O2398	O	0.151842	0.810258	0.387705
	O2399	O	0.193098	0.811683	0.388216
	O2400	O	0.192992	0.193646	0.388288
	O2401	O	0.151752	0.194721	0.387687
	O2402	O	0.180133	0.193109	0.495708
	O2403	O	0.180456	0.310015	0.495756
	O2404	O	0.138987	0.194516	0.494588
	O2405	O	0.139186	0.311220	0.494592
	O2406	O	0.152002	0.311558	0.387767
	O2407	O	0.193219	0.310267	0.388231
	H2408	H	0.135229	0.641744	0.464709
	H2409	H	0.135236	0.861943	0.464783
	H2410	H	0.135222	0.143013	0.464812
	H2411	H	0.135241	0.362708	0.464790
	H2412	H	0.137924	0.861925	0.416860
	H2413	H	0.138172	0.641856	0.416940
	H2414	H	0.138037	0.362881	0.416865
	H2415	H	0.138228	0.143241	0.416924
	H2416	H	0.211891	0.064209	0.440123
	H2417	H	0.210142	0.064602	0.443554
	H2418	H	0.209974	0.940776	0.443555
	H2419	H	0.211882	0.941104	0.440139
	H2420	H	0.223546	0.064372	0.438711
	H2421	H	0.223476	0.941079	0.438724
	H2422	H	0.120974	0.064525	0.438088
	H2423	H	0.121014	0.941198	0.438105
	H2424	H	0.112402	0.064478	0.435713
	H2425	H	0.112484	0.940873	0.435729
	H2426	H	0.099560	0.064490	0.438047
	H2427	H	0.099520	0.941167	0.438018
	H2428	H	0.103822	0.440354	0.439304
	H2429	H	0.103871	0.440630	0.441727
	H2430	H	0.110929	0.440862	0.437688
	H2431	H	0.229137	0.440569	0.443450
	H2432	H	0.221743	0.440813	0.446209
	H2433	H	0.214340	0.440299	0.445322
	H2434	H	0.103826	0.564121	0.441707
	H2435	H	0.103715	0.564437	0.439326
	H2436	H	0.214403	0.564339	0.445332
	H2437	H	0.221657	0.563673	0.446173
	H2438	H	0.229122	0.564074	0.443426
	H2439	H	0.110859	0.564075	0.437697
	H2440	H	0.197772	0.643217	0.467025
	H2441	H	0.197167	0.862565	0.466930
	H2442	H	0.197670	0.142099	0.467023
	H2443	H	0.197799	0.361099	0.467069
	H2444	H	0.143852	0.641706	0.401391
	H2445	H	0.197680	0.643111	0.402291
	H2446	H	0.197444	0.863224	0.402258
	H2447	H	0.143606	0.861731	0.401362
	H2448	H	0.198603	0.643092	0.418033
	H2449	H	0.198441	0.862915	0.417997
	H2450	H	0.190838	0.643147	0.482442
	H2451	H	0.190172	0.862571	0.482340
	H2452	H	0.176023	0.441078	0.378402
	H2453	H	0.160315	0.441055	0.501652
	H2454	H	0.172898	0.440539	0.379275
	H2455	H	0.170436	0.440866	0.378834
	H2456	H	0.149331	0.440571	0.506060
	H2457	H	0.150497	0.440710	0.503097
	H2458	H	0.160300	0.564730	0.501675
	H2459	H	0.175987	0.564414	0.378414
	H2460	H	0.150530	0.564622	0.503111
	H2461	H	0.149417	0.564233	0.506066
	H2462	H	0.170388	0.564063	0.378812
	H2463	H	0.173017	0.564254	0.379270
	H2464	H	0.190612	0.141848	0.482427
	H2465	H	0.190697	0.361031	0.482480
	H2466	H	0.175059	0.064376	0.380914
	H2467	H	0.179729	0.064263	0.379205
	H2468	H	0.166488	0.064564	0.379857
	H2469	H	0.136174	0.861499	0.480492
	H2470	H	0.136161	0.641545	0.480460
	H2471	H	0.136202	0.362856	0.480504
	H2472	H	0.136092	0.143074	0.480556
	H2473	H	0.143909	0.143122	0.401388
	H2474	H	0.197622	0.142115	0.402265
	H2475	H	0.197451	0.361873	0.402254
	H2476	H	0.143674	0.362778	0.401371
	H2477	H	0.198592	0.142082	0.417995
	H2478	H	0.198418	0.361751	0.417997
	H2479	H	0.167767	0.064033	0.502931
	H2480	H	0.159794	0.064316	0.500667
	H2481	H	0.147832	0.064320	0.502796
	H2482	H	0.179709	0.941255	0.379200
	H2483	H	0.174946	0.940637	0.380904
	H2484	H	0.166595	0.940691	0.379875
	H2485	H	0.167776	0.941245	0.502955
	H2486	H	0.159849	0.940922	0.500676
	H2487	H	0.147793	0.940771	0.502756
	Zn2488	Zn	0.110323	0.679936	0.440524
	Zn2489	Zn	0.110496	0.825169	0.440513
	Zn2490	Zn	0.110421	0.179926	0.440500
	Zn2491	Zn	0.110430	0.325312	0.440548
	Zn2492	Zn	0.158170	0.679939	0.505183
	Zn2493	Zn	0.157943	0.825269	0.505141
	Zn2494	Zn	0.157967	0.180036	0.505159
	Zn2495	Zn	0.158278	0.325347	0.505168
	C2496	C	0.200113	0.752818	0.428410
	C2497	C	0.132634	0.752264	0.454356
	C2498	C	0.135298	0.751916	0.463790
	C2499	C	0.135516	0.689461	0.468217
	C2500	C	0.135505	0.814041	0.468254
	C2501	C	0.132671	0.252796	0.454381
	C2502	C	0.135356	0.252779	0.463828
	C2503	C	0.135503	0.190746	0.468307
	C2504	C	0.135520	0.314961	0.468283
	C2505	C	0.133325	0.752076	0.427135
	C2506	C	0.138047	0.751844	0.417881
	C2507	C	0.139303	0.813976	0.413444
	C2508	C	0.139444	0.689605	0.413471
	C2509	C	0.133242	0.253091	0.427086
	C2510	C	0.138070	0.253073	0.417862
	C2511	C	0.139419	0.315135	0.413441
	C2512	C	0.139525	0.190881	0.413464
	C2513	C	0.213428	0.043009	0.442052
	C2514	C	0.213384	0.962135	0.442075
	C2515	C	0.115034	0.043051	0.437856
	C2516	C	0.115069	0.962222	0.437856
	C2517	C	0.102123	0.042936	0.440218
	C2518	C	0.102131	0.962245	0.440201
	C2519	C	0.105565	0.461934	0.440523
	C2520	C	0.226060	0.461975	0.442133
	C2521	C	0.218557	0.461943	0.444927
	C2522	C	0.105517	0.543000	0.440528
	C2523	C	0.218555	0.542732	0.444931
	C2524	C	0.226072	0.542913	0.442132
	C2525	C	0.201772	0.752941	0.456794
	C2526	C	0.201991	0.252020	0.456867
	C2527	C	0.197493	0.752831	0.466044
	C2528	C	0.196092	0.690757	0.470448
	C2529	C	0.195668	0.814970	0.470384
	C2530	C	0.197733	0.251628	0.466110
	C2531	C	0.196112	0.189612	0.470460
	C2532	C	0.196165	0.313595	0.470490
	C2533	C	0.200173	0.251821	0.428419
	C2534	C	0.194905	0.753398	0.391865
	C2535	C	0.149230	0.751822	0.391209
	C2536	C	0.137733	0.751590	0.490931
	C2537	C	0.198259	0.690810	0.414514
	C2538	C	0.198169	0.815277	0.414485
	C2539	C	0.197567	0.753192	0.401307
	C2540	C	0.143869	0.751796	0.400412
	C2541	C	0.142394	0.689583	0.404831
	C2542	C	0.197868	0.690982	0.405778
	C2543	C	0.197763	0.815394	0.405750
	C2544	C	0.142268	0.813966	0.404810
	C2545	C	0.198190	0.753009	0.418955
	C2546	C	0.183594	0.752883	0.492370
	C2547	C	0.192341	0.690772	0.479014
	C2548	C	0.191933	0.814934	0.478949
	C2549	C	0.190097	0.752840	0.483324
	C2550	C	0.161926	0.462312	0.503306
	C2551	C	0.172034	0.462012	0.378778
	C2552	C	0.152074	0.461965	0.504733
	C2553	C	0.161891	0.543003	0.503317
	C2554	C	0.152079	0.542925	0.504723
	C2555	C	0.172029	0.542825	0.378765
	C2556	C	0.183608	0.251523	0.492378
	C2557	C	0.192332	0.189453	0.479013
	C2558	C	0.192389	0.313534	0.479043
	C2559	C	0.190247	0.251462	0.483361
	C2560	C	0.176111	0.042927	0.379525
	C2561	C	0.194962	0.252030	0.391884
	C2562	C	0.149150	0.253066	0.391212
	C2563	C	0.137785	0.252883	0.490934
	C2564	C	0.198254	0.189851	0.414502
	C2565	C	0.198186	0.313994	0.414497
	C2566	C	0.197631	0.252006	0.401318
	C2567	C	0.143971	0.252937	0.400419
	C2568	C	0.135835	0.751491	0.481442
	C2569	C	0.135826	0.813773	0.476987
	C2570	C	0.135848	0.689338	0.476960
	C2571	C	0.135919	0.252932	0.481477
	C2572	C	0.135869	0.315097	0.477016
	C2573	C	0.135833	0.190807	0.477047
	C2574	C	0.142507	0.190857	0.404833
	C2575	C	0.197838	0.189869	0.405773
	C2576	C	0.197781	0.314172	0.405761
	C2577	C	0.142372	0.315035	0.404816
	C2578	C	0.198269	0.251884	0.418971
	C2579	C	0.162150	0.042960	0.502682
	C2580	C	0.167575	0.042845	0.378466
	C2581	C	0.176098	0.962190	0.379525
	C2582	C	0.162170	0.962250	0.502687
	C2583	C	0.167571	0.962214	0.378468
	N2584	N	0.110393	0.069806	0.440537
	N2585	N	0.110400	0.935273	0.440524
	N2586	N	0.110435	0.435403	0.440530
	N2587	N	0.110315	0.569898	0.440527
	N2588	N	0.158089	0.435350	0.505138
	N2589	N	0.158022	0.569846	0.505147
	N2590	N	0.157790	0.069835	0.505140
	N2591	N	0.157784	0.935274	0.505104
	O2592	O	0.257450	0.694695	0.546946
	O2593	O	0.257345	0.811075	0.546969
	O2594	O	0.120587	0.694456	0.576359
	O2595	O	0.120466	0.810539	0.576359
	O2596	O	0.120468	0.194202	0.576315
	O2597	O	0.120451	0.310591	0.576370
	O2598	O	0.117937	0.694471	0.558294
	O2599	O	0.117547	0.811388	0.558209
	O2600	O	0.117671	0.194182	0.558248
	O2601	O	0.117810	0.310985	0.558285
	O2602	O	0.260125	0.694414	0.564972
	O2603	O	0.260063	0.811172	0.564979
	O2604	O	0.260180	0.194152	0.565018
	O2605	O	0.260107	0.311108	0.564991
	O2606	O	0.257297	0.194054	0.547025
	O2607	O	0.257380	0.310491	0.546943
	O2608	O	0.183122	0.694417	0.513802
	O2609	O	0.141502	0.693864	0.515830
	O2610	O	0.236403	0.694235	0.607408
	O2611	O	0.236459	0.810829	0.607450
	O2612	O	0.194847	0.694574	0.609532
	O2613	O	0.194897	0.810734	0.609489
	O2614	O	0.141416	0.810487	0.515779
	O2615	O	0.182698	0.810972	0.513919
	O2616	O	0.182942	0.193452	0.513825
	O2617	O	0.141333	0.194925	0.515786
	O2618	O	0.236329	0.194070	0.607421
	O2619	O	0.236381	0.310626	0.607452
	O2620	O	0.194942	0.194219	0.609464
	O2621	O	0.194800	0.310526	0.609453
	O2622	O	0.141517	0.311567	0.515819
	O2623	O	0.183132	0.309813	0.513796
	H2624	H	0.144211	0.645022	0.587001
	H2625	H	0.144635	0.860444	0.586874
	H2626	H	0.144419	0.143701	0.586895
	H2627	H	0.144475	0.360585	0.586904
	H2628	H	0.128016	0.862286	0.544933
	H2629	H	0.128090	0.643242	0.544967
	H2630	H	0.128066	0.362073	0.544979
	H2631	H	0.128143	0.143132	0.544956
	H2632	H	0.286124	0.064303	0.554098
	H2633	H	0.281928	0.064109	0.553539
	H2634	H	0.281870	0.940962	0.553550
	H2635	H	0.286110	0.941021	0.554106
	H2636	H	0.287317	0.064513	0.556468
	H2637	H	0.287337	0.940923	0.556477
	H2638	H	0.098884	0.064328	0.565484
	H2639	H	0.098955	0.940859	0.565561
	H2640	H	0.093261	0.064955	0.565182
	H2641	H	0.093314	0.940591	0.565159
	H2642	H	0.088656	0.064178	0.567583
	H2643	H	0.088649	0.940723	0.567579
	H2644	H	0.082335	0.440373	0.566894
	H2645	H	0.085632	0.440852	0.571115
	H2646	H	0.092792	0.440703	0.562564
	H2647	H	0.287838	0.440588	0.555597
	H2648	H	0.284488	0.440484	0.557608
	H2649	H	0.279877	0.441310	0.557450
	H2650	H	0.085621	0.564188	0.571074
	H2651	H	0.082468	0.564650	0.566871
	H2652	H	0.279900	0.564028	0.557454
	H2653	H	0.284354	0.564342	0.557643
	H2654	H	0.287883	0.564175	0.555575
	H2655	H	0.092849	0.564165	0.562564
	H2656	H	0.249788	0.643216	0.578284
	H2657	H	0.249591	0.862260	0.578281
	H2658	H	0.249384	0.143199	0.578225
	H2659	H	0.249845	0.362146	0.578298
	H2660	H	0.135238	0.643070	0.529579
	H2661	H	0.207112	0.643910	0.524328
	H2662	H	0.206690	0.861841	0.524477
	H2663	H	0.135138	0.861903	0.529523
	H2664	H	0.233464	0.643763	0.536344
	H2665	H	0.232987	0.861754	0.536494
	H2666	H	0.242741	0.643281	0.593700
	H2667	H	0.242619	0.862182	0.593690
	H2668	H	0.166347	0.441181	0.503624
	H2669	H	0.219797	0.440770	0.622880
	H2670	H	0.164666	0.440800	0.507682
	H2671	H	0.157660	0.440203	0.508770
	H2672	H	0.230565	0.440597	0.615856
	H2673	H	0.231270	0.440962	0.619849
	H2674	H	0.219732	0.564200	0.622893
	H2675	H	0.166202	0.564138	0.503663
	H2676	H	0.231260	0.564321	0.619872
	H2677	H	0.230601	0.564356	0.615861
	H2678	H	0.157572	0.564290	0.508770
	H2679	H	0.164738	0.563708	0.507694
	H2680	H	0.242277	0.142952	0.593631
	H2681	H	0.242777	0.362154	0.593697
	H2682	H	0.157898	0.064677	0.509711
	H2683	H	0.166725	0.064204	0.508144
	H2684	H	0.147016	0.064515	0.506604
	H2685	H	0.170965	0.860229	0.598894
	H2686	H	0.170470	0.645025	0.599017
	H2687	H	0.170773	0.360609	0.598917
	H2688	H	0.170722	0.143643	0.598916
	H2689	H	0.135383	0.143327	0.529561
	H2690	H	0.206691	0.143234	0.524525
	H2691	H	0.207359	0.359875	0.524231
	H2692	H	0.135255	0.362478	0.529579
	H2693	H	0.233052	0.143371	0.536521
	H2694	H	0.233627	0.360301	0.536269
	H2695	H	0.215248	0.064137	0.621546
	H2696	H	0.223605	0.064630	0.621850
	H2697	H	0.229963	0.064125	0.618115
	H2698	H	0.166601	0.941315	0.508138
	H2699	H	0.157849	0.940632	0.509686
	H2700	H	0.146938	0.940365	0.506572
	H2701	H	0.215223	0.941391	0.621569
	H2702	H	0.223601	0.940506	0.621837
	H2703	H	0.230004	0.940238	0.618094
	Zn2704	Zn	0.095627	0.679788	0.567700
	Zn2705	Zn	0.095458	0.825146	0.567700
	Zn2706	Zn	0.095549	0.179705	0.567660
	Zn2707	Zn	0.095623	0.325252	0.567720
	Zn2708	Zn	0.219818	0.679862	0.618078
	Zn2709	Zn	0.219933	0.824936	0.618096
	Zn2710	Zn	0.219869	0.179870	0.618105
	Zn2711	Zn	0.219863	0.325139	0.618087
	C2712	C	0.251026	0.752834	0.544246
	C2713	C	0.126961	0.752583	0.579033
	C2714	C	0.143017	0.752742	0.586154
	C2715	C	0.150204	0.691860	0.589625
	C2716	C	0.150443	0.813680	0.589552
	C2717	C	0.126841	0.252311	0.579027
	C2718	C	0.142989	0.252165	0.586144
	C2719	C	0.150354	0.190779	0.589554
	C2720	C	0.150374	0.313467	0.589552
	C2721	C	0.120994	0.752881	0.554892
	C2722	C	0.127603	0.752818	0.545859
	C2723	C	0.129709	0.814840	0.541519
	C2724	C	0.129738	0.690762	0.541542
	C2725	C	0.121063	0.252638	0.554900
	C2726	C	0.127654	0.252742	0.545864
	C2727	C	0.129778	0.314711	0.541537
	C2728	C	0.129807	0.190754	0.541528
	C2729	C	0.283679	0.042826	0.554294
	C2730	C	0.283647	0.962197	0.554301
	C2731	C	0.095817	0.043301	0.565950
	C2732	C	0.095861	0.961993	0.565956
	C2733	C	0.091184	0.042745	0.568360
	C2734	C	0.091169	0.962067	0.568341
	C2735	C	0.086987	0.461990	0.568658
	C2736	C	0.285708	0.461857	0.554984
	C2737	C	0.282278	0.462248	0.557018
	C2738	C	0.086978	0.543052	0.568641
	C2739	C	0.282296	0.543098	0.557035
	C2740	C	0.285736	0.542698	0.554994
	C2741	C	0.256787	0.752718	0.568337
	C2742	C	0.256803	0.252636	0.568358
	C2743	C	0.250116	0.752629	0.577357
	C2744	C	0.248048	0.690721	0.581708
	C2745	C	0.247973	0.814604	0.581703
	C2746	C	0.250102	0.252686	0.577377
	C2747	C	0.247813	0.190632	0.581675
	C2748	C	0.248080	0.314705	0.581722
	C2749	C	0.250933	0.252225	0.544300
	C2750	C	0.189319	0.752788	0.516534
	C2751	C	0.139574	0.752238	0.519376
	C2752	C	0.188425	0.752609	0.606827
	C2753	C	0.227517	0.691184	0.533699
	C2754	C	0.227276	0.814407	0.533770
	C2755	C	0.205440	0.752891	0.523655
	C2756	C	0.135218	0.752532	0.528619
	C2757	C	0.133635	0.690657	0.532999
	C2758	C	0.212911	0.691214	0.527032
	C2759	C	0.212648	0.814552	0.527115
	C2760	C	0.133584	0.814658	0.532970
	C2761	C	0.234854	0.752766	0.537128
	C2762	C	0.238307	0.752612	0.603867
	C2763	C	0.244226	0.690766	0.590263
	C2764	C	0.244154	0.814672	0.590259
	C2765	C	0.242565	0.752735	0.594623
	C2766	C	0.216518	0.462145	0.620934
	C2767	C	0.160307	0.462045	0.507430
	C2768	C	0.228090	0.461982	0.617908
	C2769	C	0.216492	0.542995	0.620939
	C2770	C	0.228086	0.543032	0.617926
	C2771	C	0.160284	0.542919	0.507408
	C2772	C	0.238227	0.252412	0.603866
	C2773	C	0.243981	0.190578	0.590233
	C2774	C	0.244250	0.314567	0.590272
	C2775	C	0.242524	0.252533	0.594632
	C2776	C	0.161036	0.043071	0.507942
	C2777	C	0.189467	0.251607	0.516485
	C2778	C	0.139577	0.253189	0.519362
	C2779	C	0.188470	0.252262	0.606764
	C2780	C	0.227387	0.190457	0.533778
	C2781	C	0.227725	0.313130	0.533630
	C2782	C	0.205667	0.251580	0.523594
	C2783	C	0.135237	0.252940	0.528606
	C2784	C	0.172307	0.752626	0.599680
	C2785	C	0.164988	0.813542	0.596239
	C2786	C	0.164734	0.691779	0.596315
	C2787	C	0.172340	0.252174	0.599633
	C2788	C	0.164947	0.313525	0.596228
	C2789	C	0.164926	0.190694	0.596229
	C2790	C	0.133634	0.190881	0.532970
	C2791	C	0.212809	0.190323	0.527100
	C2792	C	0.213155	0.312909	0.526955
	C2793	C	0.133613	0.314823	0.532985
	C2794	C	0.234951	0.251923	0.537128
	C2795	C	0.219657	0.042989	0.620768
	C2796	C	0.150072	0.042984	0.504826
	C2797	C	0.161021	0.962227	0.507930
	C2798	C	0.219627	0.962048	0.620760
	C2799	C	0.150061	0.962049	0.504796
	N2800	N	0.095321	0.069713	0.567707
	N2801	N	0.095313	0.935259	0.567707
	N2802	N	0.095405	0.435418	0.567740
	N2803	N	0.095420	0.569906	0.567712
	N2804	N	0.220052	0.435279	0.618090
	N2805	N	0.220027	0.569805	0.618100
	N2806	N	0.220090	0.069636	0.618150
	N2807	N	0.220081	0.935090	0.618128
	O2808	O	0.246620	0.694801	0.672495
	O2809	O	0.247119	0.811576	0.672462
	O2810	O	0.175939	0.694163	0.691206
	O2811	O	0.176063	0.810765	0.691198
	O2812	O	0.176400	0.194724	0.691131
	O2813	O	0.175989	0.311476	0.691163
	O2814	O	0.173507	0.694105	0.669963
	O2815	O	0.173750	0.810832	0.669949
	O2816	O	0.173791	0.194797	0.669979
	O2817	O	0.173466	0.311228	0.669907
	O2818	O	0.246635	0.694871	0.692565
	O2819	O	0.247160	0.811713	0.692655
	O2820	O	0.247215	0.193148	0.692663
	O2821	O	0.246742	0.309789	0.692597
	O2822	O	0.247177	0.193224	0.672414
	O2823	O	0.246771	0.309914	0.672481
	O2824	O	0.238771	0.693904	0.628678
	O2825	O	0.197574	0.694354	0.627522
	O2826	O	0.226022	0.694175	0.735514
	O2827	O	0.225963	0.810716	0.735526
	O2828	O	0.184703	0.694106	0.734979
	O2829	O	0.184771	0.810796	0.734975
	O2830	O	0.197716	0.811139	0.627515
	O2831	O	0.238953	0.810701	0.628656
	O2832	O	0.239146	0.194283	0.628615
	O2833	O	0.197949	0.193873	0.627611
	O2834	O	0.226123	0.194335	0.735598
	O2835	O	0.225654	0.311144	0.735477
	O2836	O	0.184842	0.193779	0.734953
	O2837	O	0.184651	0.310546	0.735001
	O2838	O	0.197723	0.310889	0.627502
	O2839	O	0.238859	0.311107	0.628650
	H2840	H	0.178795	0.642765	0.705261
	H2841	H	0.179199	0.862375	0.705258
	H2842	H	0.179915	0.143390	0.705226
	H2843	H	0.178696	0.363040	0.705253
	H2844	H	0.180232	0.862044	0.656221
	H2845	H	0.179429	0.642893	0.656188
	H2846	H	0.179181	0.362369	0.656090
	H2847	H	0.180413	0.143316	0.656267
	H2848	H	0.261960	0.063990	0.686248
	H2849	H	0.270777	0.063809	0.686637
	H2850	H	0.270810	0.940569	0.686652
	H2851	H	0.262058	0.940336	0.686231
	H2852	H	0.256945	0.063859	0.681875
	H2853	H	0.257032	0.940259	0.681863
	H2854	H	0.161612	0.064638	0.675836
	H2855	H	0.161733	0.940525	0.675780
	H2856	H	0.150639	0.064214	0.676107
	H2857	H	0.150691	0.941377	0.676035
	H2858	H	0.144277	0.064085	0.681393
	H2859	H	0.144183	0.941441	0.681385
	H2860	H	0.159938	0.441254	0.677330
	H2861	H	0.152554	0.441634	0.677539
	H2862	H	0.165673	0.440684	0.680702
	H2863	H	0.263081	0.440731	0.681728
	H2864	H	0.267801	0.440580	0.680948
	H2865	H	0.270805	0.440835	0.681880
	H2866	H	0.152641	0.564499	0.677600
	H2867	H	0.159975	0.564717	0.677371
	H2868	H	0.270881	0.563921	0.681885
	H2869	H	0.267858	0.564117	0.680977
	H2870	H	0.263003	0.564380	0.681713
	H2871	H	0.165715	0.564395	0.680690
	H2872	H	0.239074	0.643165	0.706258
	H2873	H	0.240378	0.863135	0.706450
	H2874	H	0.240468	0.141830	0.706449
	H2875	H	0.238899	0.361533	0.706318
	H2876	H	0.186713	0.643128	0.640772
	H2877	H	0.241435	0.642850	0.642759
	H2878	H	0.242121	0.862644	0.642703
	H2879	H	0.187452	0.862275	0.640833
	H2880	H	0.242136	0.643202	0.658475
	H2881	H	0.242931	0.863094	0.658426
	H2882	H	0.233504	0.642737	0.721782
	H2883	H	0.234804	0.862683	0.721968
	H2884	H	0.210650	0.441061	0.621004
	H2885	H	0.192435	0.440644	0.741503
	H2886	H	0.209656	0.440789	0.615578
	H2887	H	0.218034	0.440546	0.613362
	H2888	H	0.203280	0.440844	0.751286
	H2889	H	0.192135	0.440636	0.748543
	H2890	H	0.192419	0.564359	0.741479
	H2891	H	0.210624	0.564127	0.621015
	H2892	H	0.192102	0.564042	0.748540
	H2893	H	0.203278	0.564008	0.751301
	H2894	H	0.218033	0.563778	0.613360
	H2895	H	0.209605	0.564001	0.615563
	H2896	H	0.234890	0.142146	0.721983
	H2897	H	0.233348	0.361727	0.721852
	H2898	H	0.214807	0.064342	0.614674
	H2899	H	0.210054	0.064333	0.617447
	H2900	H	0.226244	0.063661	0.615105
	H2901	H	0.180425	0.862308	0.720984
	H2902	H	0.179911	0.642736	0.720991
	H2903	H	0.179627	0.362543	0.720983
	H2904	H	0.180791	0.142977	0.720946
	H2905	H	0.187688	0.143011	0.640908
	H2906	H	0.242259	0.142975	0.642630
	H2907	H	0.241806	0.362357	0.642748
	H2908	H	0.186559	0.362045	0.640696
	H2909	H	0.242906	0.142217	0.658360
	H2910	H	0.242472	0.361764	0.658488
	H2911	H	0.200541	0.064358	0.738741
	H2912	H	0.189597	0.064161	0.742279
	H2913	H	0.193027	0.064701	0.749878
	H2914	H	0.210106	0.941153	0.617411
	H2915	H	0.214760	0.940586	0.614642
	H2916	H	0.226255	0.940739	0.615131
	H2917	H	0.200426	0.941115	0.738755
	H2918	H	0.189520	0.940904	0.742277
	H2919	H	0.192995	0.940913	0.749932
	Zn2920	Zn	0.156990	0.680158	0.680610
	Zn2921	Zn	0.157056	0.825407	0.680581
	Zn2922	Zn	0.157108	0.180234	0.680612
	Zn2923	Zn	0.156866	0.325430	0.680580
	Zn2924	Zn	0.204980	0.680049	0.745258
	Zn2925	Zn	0.204969	0.825271	0.745265
	Zn2926	Zn	0.204980	0.180081	0.745275
	Zn2927	Zn	0.204959	0.325260	0.745251
	C2928	C	0.245022	0.753228	0.668860
	C2929	C	0.177356	0.752476	0.694856
	C2930	C	0.179299	0.752566	0.704307
	C2931	C	0.179236	0.690423	0.708760
	C2932	C	0.179483	0.814730	0.708760
	C2933	C	0.177610	0.253066	0.694800
	C2934	C	0.179566	0.253169	0.704265
	C2935	C	0.179870	0.191009	0.708721
	C2936	C	0.179239	0.315180	0.708743
	C2937	C	0.175539	0.752396	0.666407
	C2938	C	0.179901	0.752433	0.657162
	C2939	C	0.181724	0.814515	0.652800
	C2940	C	0.181290	0.690409	0.652785
	C2941	C	0.175452	0.252941	0.666369
	C2942	C	0.179749	0.252907	0.657133
	C2943	C	0.181107	0.314727	0.652706
	C2944	C	0.181760	0.190784	0.652816
	C2945	C	0.266602	0.042877	0.685472
	C2946	C	0.266606	0.961925	0.685470
	C2947	C	0.156464	0.043437	0.677192
	C2948	C	0.156472	0.962275	0.677155
	C2949	C	0.150021	0.043142	0.682539
	C2950	C	0.150021	0.962210	0.682511
	C2951	C	0.156501	0.462668	0.678265
	C2952	C	0.263878	0.461936	0.682518
	C2953	C	0.268675	0.461933	0.681740
	C2954	C	0.156544	0.543213	0.678306
	C2955	C	0.268696	0.542635	0.681749
	C2956	C	0.263890	0.542850	0.682506
	C2957	C	0.244460	0.753249	0.696128
	C2958	C	0.244468	0.251525	0.696147
	C2959	C	0.239642	0.753164	0.705373
	C2960	C	0.237951	0.690842	0.709739
	C2961	C	0.238677	0.815200	0.709849
	C2962	C	0.239771	0.251660	0.705393
	C2963	C	0.238815	0.189649	0.709868
	C2964	C	0.237956	0.313838	0.709791
	C2965	C	0.245202	0.251631	0.668831
	C2966	C	0.240154	0.752327	0.632318
	C2967	C	0.194343	0.752818	0.630889
	C2968	C	0.182917	0.752452	0.731368
	C2969	C	0.242150	0.690898	0.654974
	C2970	C	0.242527	0.815186	0.654951
	C2971	C	0.242044	0.752588	0.641779
	C2972	C	0.187647	0.752698	0.639923
	C2973	C	0.185185	0.690556	0.644233
	C2974	C	0.241858	0.690620	0.646247
	C2975	C	0.242228	0.814925	0.646220
	C2976	C	0.185615	0.814682	0.644253
	C2977	C	0.242468	0.753128	0.659427
	C2978	C	0.228697	0.752502	0.732030
	C2979	C	0.235016	0.690627	0.718370
	C2980	C	0.235733	0.814927	0.718478
	C2981	C	0.233859	0.752630	0.722828
	C2982	C	0.199901	0.462137	0.741606
	C2983	C	0.215490	0.462004	0.615417
	C2984	C	0.199579	0.462046	0.748687
	C2985	C	0.199900	0.542970	0.741598
	C2986	C	0.199578	0.542826	0.748688
	C2987	C	0.215502	0.542633	0.615407
	C2988	C	0.228648	0.252589	0.732065
	C2989	C	0.235825	0.189770	0.718494
	C2990	C	0.234959	0.314028	0.718420
	C2991	C	0.233821	0.252064	0.722842
	C2992	C	0.214496	0.042994	0.616620
	C2993	C	0.240332	0.252668	0.632288
	C2994	C	0.194418	0.252511	0.630894
	C2995	C	0.182895	0.252274	0.731366
	C2996	C	0.242541	0.190022	0.654890
	C2997	C	0.242317	0.314159	0.654966
	C2998	C	0.242146	0.252650	0.641745
	C2999	C	0.187567	0.252589	0.639899
	C3000	C	0.180108	0.752531	0.721941
	C3001	C	0.179950	0.814713	0.717491
	C3002	C	0.179692	0.690407	0.717490
	C3003	C	0.180198	0.252742	0.721922
	C3004	C	0.179670	0.315027	0.717478
	C3005	C	0.180273	0.190759	0.717451
	C3006	C	0.185705	0.190649	0.644278
	C3007	C	0.242233	0.190430	0.646160
	C3008	C	0.242022	0.314550	0.646236
	C3009	C	0.185057	0.314661	0.644164
	C3010	C	0.242588	0.251898	0.659388
	C3011	C	0.197627	0.042899	0.741751
	C3012	C	0.226042	0.042596	0.617011
	C3013	C	0.214510	0.962128	0.616597
	C3014	C	0.197590	0.962270	0.741762
	C3015	C	0.226073	0.961933	0.617008
	N3016	N	0.157134	0.070072	0.680641
	N3017	N	0.157164	0.935502	0.680612
	N3018	N	0.156995	0.435473	0.680587
	N3019	N	0.157077	0.569989	0.680607
	N3020	N	0.204970	0.435220	0.745208
	N3021	N	0.204951	0.569703	0.745213
	N3022	N	0.204974	0.069938	0.745247
	N3023	N	0.204930	0.935445	0.745261
	O3024	O	0.241782	0.695213	0.798977
	O3025	O	0.242314	0.811784	0.798914
	O3026	O	0.162875	0.694692	0.817869
	O3027	O	0.162792	0.811314	0.817910
	O3028	O	0.162621	0.194020	0.817956
	O3029	O	0.162871	0.310831	0.817917
	O3030	O	0.163301	0.694349	0.798046
	O3031	O	0.163230	0.811324	0.798004
	O3032	O	0.163280	0.194588	0.798053
	O3033	O	0.163261	0.311263	0.798001
	O3034	O	0.241279	0.694669	0.818963
	O3035	O	0.241596	0.811479	0.818986
	O3036	O	0.241566	0.193544	0.818984
	O3037	O	0.241191	0.310192	0.818914
	O3038	O	0.241958	0.193568	0.798953
	O3039	O	0.241613	0.310299	0.798987
	O3040	O	0.225431	0.694442	0.755474
	O3041	O	0.184590	0.694022	0.755142
	O3042	O	0.219912	0.694667	0.861808
	O3043	O	0.220227	0.811213	0.861889
	O3044	O	0.179172	0.694588	0.861432
	O3045	O	0.179211	0.811257	0.861424
	O3046	O	0.184668	0.810571	0.755165
	O3047	O	0.225688	0.811187	0.755446
	O3048	O	0.225320	0.194202	0.755516
	O3049	O	0.184580	0.194067	0.755136
	O3050	O	0.220141	0.194766	0.861868
	O3051	O	0.220216	0.311517	0.861807
	O3052	O	0.179293	0.194491	0.861422
	O3053	O	0.179311	0.311234	0.861428
	O3054	O	0.184659	0.310711	0.755156
	O3055	O	0.225454	0.310961	0.755504
	H3056	H	0.169306	0.643243	0.831755
	H3057	H	0.169323	0.862811	0.831822
	H3058	H	0.169328	0.143143	0.831792
	H3059	H	0.168973	0.362487	0.831856
	H3060	H	0.171426	0.862393	0.784355
	H3061	H	0.171583	0.642676	0.784407
	H3062	H	0.171537	0.362565	0.784352
	H3063	H	0.171239	0.142863	0.784359
	H3064	H	0.262800	0.064052	0.810343
	H3065	H	0.264819	0.063626	0.809857
	H3066	H	0.264980	0.941130	0.809863
	H3067	H	0.262789	0.941085	0.810364
	H3068	H	0.260016	0.064692	0.809677
	H3069	H	0.260051	0.940685	0.809681
	H3070	H	0.161003	0.064255	0.809704
	H3071	H	0.161086	0.941275	0.809697
	H3072	H	0.157951	0.064336	0.803358
	H3073	H	0.157861	0.940767	0.803334
	H3074	H	0.136775	0.064511	0.800286
	H3075	H	0.136816	0.940652	0.800275
	H3076	H	0.144778	0.441058	0.808551
	H3077	H	0.145355	0.441413	0.807508
	H3078	H	0.141214	0.440857	0.808940
	H3079	H	0.251961	0.441450	0.814150
	H3080	H	0.246790	0.441609	0.806928
	H3081	H	0.256379	0.440931	0.803106
	H3082	H	0.145266	0.564535	0.807526
	H3083	H	0.144662	0.564809	0.808560
	H3084	H	0.256363	0.564847	0.803119
	H3085	H	0.246837	0.564879	0.806962
	H3086	H	0.251979	0.564526	0.814102
	H3087	H	0.141162	0.564363	0.808928
	H3088	H	0.233070	0.643423	0.832592
	H3089	H	0.233813	0.862959	0.832634
	H3090	H	0.233908	0.142244	0.832744
	H3091	H	0.232926	0.361838	0.832535
	H3092	H	0.177186	0.642371	0.768901
	H3093	H	0.231617	0.643039	0.769411
	H3094	H	0.231984	0.862509	0.769365
	H3095	H	0.177032	0.862281	0.768845
	H3096	H	0.235506	0.643421	0.785100
	H3097	H	0.235843	0.862939	0.785032
	H3098	H	0.227190	0.643381	0.848079
	H3099	H	0.227935	0.863028	0.848136
	H3100	H	0.203869	0.440985	0.739105
	H3101	H	0.197871	0.441098	0.874994
	H3102	H	0.219111	0.440958	0.742871
	H3103	H	0.218811	0.440855	0.748028
	H3104	H	0.208086	0.441229	0.870773
	H3105	H	0.207093	0.441075	0.873591
	H3106	H	0.197903	0.564598	0.874990
	H3107	H	0.203813	0.564218	0.739106
	H3108	H	0.207146	0.564541	0.873612
	H3109	H	0.208166	0.564666	0.870713
	H3110	H	0.218802	0.564600	0.748005
	H3111	H	0.219048	0.564659	0.742885
	H3112	H	0.228226	0.142922	0.848262
	H3113	H	0.227293	0.362677	0.848035
	H3114	H	0.221436	0.064125	0.747119
	H3115	H	0.218869	0.064467	0.741517
	H3116	H	0.206421	0.064265	0.751935
	H3117	H	0.173014	0.862630	0.847506
	H3118	H	0.173025	0.643041	0.847449
	H3119	H	0.172803	0.362664	0.847529
	H3120	H	0.173170	0.142902	0.847493
	H3121	H	0.176977	0.142761	0.768850
	H3122	H	0.232025	0.142600	0.769365
	H3123	H	0.231609	0.362416	0.769415
	H3124	H	0.177203	0.362386	0.768833
	H3125	H	0.235763	0.142435	0.785038
	H3126	H	0.235287	0.362152	0.785114
	H3127	H	0.207278	0.064584	0.876475
	H3128	H	0.213738	0.064406	0.872576
	H3129	H	0.206313	0.064465	0.866806
	H3130	H	0.218780	0.940684	0.741539
	H3131	H	0.221324	0.940792	0.747094
	H3132	H	0.206489	0.940948	0.751945
	H3133	H	0.207267	0.940784	0.876491
	H3134	H	0.213795	0.941285	0.872604
	H3135	H	0.206323	0.941384	0.866768
	Zn3136	Zn	0.142272	0.680150	0.807718
	Zn3137	Zn	0.142174	0.825175	0.807707
	Zn3138	Zn	0.142132	0.179981	0.807767
	Zn3139	Zn	0.142220	0.325155	0.807744
	Zn3140	Zn	0.199629	0.680313	0.871687
	Zn3141	Zn	0.199598	0.825082	0.871716
	Zn3142	Zn	0.199625	0.180270	0.871692
	Zn3143	Zn	0.199573	0.325047	0.871696
	C3144	C	0.239770	0.753481	0.795370
	C3145	C	0.165111	0.752982	0.821479
	C3146	C	0.169132	0.753067	0.830854
	C3147	C	0.170137	0.690919	0.835271
	C3148	C	0.170140	0.815073	0.835308
	C3149	C	0.165045	0.252496	0.821511
	C3150	C	0.169078	0.252706	0.830899
	C3151	C	0.170124	0.190630	0.835319
	C3152	C	0.169922	0.314895	0.835350
	C3153	C	0.166011	0.752773	0.794552
	C3154	C	0.171349	0.752555	0.785346
	C3155	C	0.172811	0.814628	0.780919
	C3156	C	0.172927	0.690367	0.780954
	C3157	C	0.165942	0.252842	0.794530
	C3158	C	0.171107	0.252767	0.785313
	C3159	C	0.172806	0.314810	0.780913
	C3160	C	0.172630	0.190648	0.780915
	C3161	C	0.263485	0.042869	0.809880
	C3162	C	0.263555	0.962427	0.809884
	C3163	C	0.154915	0.043092	0.806831
	C3164	C	0.154940	0.962370	0.806828
	C3165	C	0.133651	0.042984	0.803733
	C3166	C	0.133675	0.962054	0.803742
	C3167	C	0.144256	0.462229	0.807959
	C3168	C	0.259566	0.462541	0.813369
	C3169	C	0.254418	0.462343	0.806123
	C3170	C	0.144259	0.543228	0.807961
	C3171	C	0.254434	0.543383	0.806123
	C3172	C	0.259606	0.543362	0.813352
	C3173	C	0.238739	0.753141	0.822456
	C3174	C	0.238665	0.251871	0.822449
	C3175	C	0.233601	0.753243	0.831666
	C3176	C	0.231847	0.691170	0.836047
	C3177	C	0.232266	0.815280	0.836074
	C3178	C	0.233577	0.251987	0.831678
	C3179	C	0.232310	0.190110	0.836142
	C3180	C	0.231810	0.314278	0.836027
	C3181	C	0.239515	0.251976	0.795401
	C3182	C	0.227809	0.752828	0.759036
	C3183	C	0.182098	0.752288	0.758666
	C3184	C	0.176928	0.752897	0.857846
	C3185	C	0.234660	0.691001	0.781600
	C3186	C	0.234869	0.815128	0.781561
	C3187	C	0.231811	0.752826	0.768413
	C3188	C	0.177262	0.752290	0.767901
	C3189	C	0.175902	0.690245	0.772326
	C3190	C	0.232654	0.690828	0.772888
	C3191	C	0.232867	0.814911	0.772856
	C3192	C	0.175798	0.814482	0.772290
	C3193	C	0.235712	0.753221	0.786011
	C3194	C	0.222617	0.753051	0.858326
	C3195	C	0.228782	0.691242	0.844665
	C3196	C	0.229181	0.815262	0.844694
	C3197	C	0.227534	0.753272	0.849104
	C3198	C	0.196263	0.462407	0.873464
	C3199	C	0.215250	0.462088	0.745395
	C3200	C	0.205549	0.462422	0.872037
	C3201	C	0.196248	0.543174	0.873463
	C3202	C	0.205597	0.543250	0.872037
	C3203	C	0.215228	0.543065	0.745393
	C3204	C	0.222735	0.253041	0.858339
	C3205	C	0.229326	0.190490	0.844770
	C3206	C	0.228832	0.314698	0.844649
	C3207	C	0.227619	0.252769	0.849118
	C3208	C	0.216109	0.043013	0.744571
	C3209	C	0.227725	0.252597	0.759080
	C3210	C	0.182013	0.252366	0.758653
	C3211	C	0.177033	0.252900	0.857857
	C3212	C	0.234733	0.190177	0.781566
	C3213	C	0.234502	0.314426	0.781608
	C3214	C	0.231688	0.252527	0.768453
	C3215	C	0.177166	0.252521	0.767877
	C3216	C	0.173003	0.752818	0.848471
	C3217	C	0.172105	0.814890	0.844021
	C3218	C	0.172116	0.690859	0.843984
	C3219	C	0.172971	0.252829	0.848502
	C3220	C	0.171939	0.314977	0.844058
	C3221	C	0.172126	0.190734	0.844030
	C3222	C	0.175684	0.190537	0.772296
	C3223	C	0.232764	0.190296	0.772860
	C3224	C	0.232543	0.314616	0.772899
	C3225	C	0.175840	0.314691	0.772287
	C3226	C	0.235554	0.252215	0.786032
	C3227	C	0.207658	0.043363	0.873792
	C3228	C	0.201097	0.043173	0.749431
	C3229	C	0.216075	0.962211	0.744564
	C3230	C	0.207677	0.962338	0.873791
	C3231	C	0.201077	0.962224	0.749431
	N3232	N	0.142135	0.069860	0.807702
	N3233	N	0.142204	0.935315	0.807689
	N3234	N	0.142155	0.435497	0.807750
	N3235	N	0.142175	0.570048	0.807745
	N3236	N	0.199797	0.435488	0.871704
	N3237	N	0.199814	0.570072	0.871697
	N3238	N	0.199726	0.070022	0.871695
	N3239	N	0.199736	0.935463	0.871692
	O3240	O	0.234151	0.694034	0.925593
	O3241	O	0.234056	0.810872	0.925616
	O3242	O	0.156964	0.693821	0.944485
	O3243	O	0.157469	0.810596	0.944415
	O3244	O	0.157526	0.194744	0.944354
	O3245	O	0.156858	0.311378	0.944463
	O3246	O	0.157216	0.693770	0.924287
	O3247	O	0.157291	0.810676	0.924318
	O3248	O	0.157133	0.195018	0.924311
	O3249	O	0.157262	0.311681	0.924349
	O3250	O	0.233831	0.693895	0.945740
	O3251	O	0.233734	0.810604	0.945735
	O3252	O	0.233832	0.194800	0.945732
	O3253	O	0.233687	0.311618	0.945662
	O3254	O	0.233978	0.194482	0.925622
	O3255	O	0.234251	0.311254	0.925598
	O3256	O	0.220006	0.694678	0.881972
	O3257	O	0.178993	0.694317	0.881489
	O3258	O	0.212320	0.693993	0.988529
	O3259	O	0.212548	0.810704	0.988549
	O3260	O	0.171251	0.694700	0.988057
	O3261	O	0.171608	0.811345	0.988031
	O3262	O	0.178775	0.811000	0.881472
	O3263	O	0.219742	0.811550	0.882027
	O3264	O	0.219842	0.194676	0.881976
	O3265	O	0.178937	0.194659	0.881503
	O3266	O	0.212606	0.194847	0.988565
	O3267	O	0.212291	0.311569	0.988547
	O3268	O	0.171541	0.193709	0.988013
	O3269	O	0.171310	0.310371	0.988069
	O3270	O	0.178688	0.311432	0.881446
	O3271	O	0.219643	0.311345	0.881996
	H3272	H	0.162470	0.642509	0.958436
	H3273	H	0.162973	0.862302	0.958360
	H3274	H	0.163074	0.143037	0.958307
	H3275	H	0.162541	0.362302	0.958422
	H3276	H	0.164429	0.862327	0.910624
	H3277	H	0.165429	0.642668	0.910664
	H3278	H	0.165119	0.362914	0.910656
	H3279	H	0.164597	0.143647	0.910601
	H3280	H	0.255432	0.064208	0.938947
	H3281	H	0.260968	0.064845	0.937578
	H3282	H	0.260978	0.941178	0.937614
	H3283	H	0.255403	0.941118	0.938984
	H3284	H	0.247402	0.064259	0.937269
	H3285	H	0.247402	0.941165	0.937264
	H3286	H	0.123877	0.064372	0.937690
	H3287	H	0.123888	0.941254	0.937697
	H3288	H	0.135376	0.064308	0.940461
	H3289	H	0.135539	0.941078	0.940469
	H3290	H	0.151327	0.065014	0.937007
	H3291	H	0.151365	0.941539	0.936995
	H3292	H	0.140183	0.441454	0.935250
	H3293	H	0.140996	0.441262	0.933854
	H3294	H	0.135435	0.440942	0.935777
	H3295	H	0.240955	0.441181	0.928662
	H3296	H	0.266655	0.440858	0.928597
	H3297	H	0.276700	0.441214	0.935008
	H3298	H	0.141061	0.564716	0.933854
	H3299	H	0.140282	0.564277	0.935269
	H3300	H	0.276644	0.564776	0.934976
	H3301	H	0.266702	0.564241	0.928559
	H3302	H	0.240947	0.564164	0.928674
	H3303	H	0.135474	0.564758	0.935834
	H3304	H	0.225992	0.642318	0.959423
	H3305	H	0.226186	0.861826	0.959408
	H3306	H	0.226180	0.143775	0.959401
	H3307	H	0.225843	0.362930	0.959328
	H3308	H	0.171310	0.642879	0.895154
	H3309	H	0.225561	0.642887	0.895943
	H3310	H	0.225303	0.862943	0.895991
	H3311	H	0.170240	0.862528	0.895116
	H3312	H	0.228641	0.642828	0.911650
	H3313	H	0.228417	0.862644	0.911686
	H3314	H	0.220287	0.642544	0.974921
	H3315	H	0.220430	0.861940	0.974899
	H3316	H	0.192132	0.440887	0.873180
	H3317	H	0.181367	0.440743	0.998127
	H3318	H	0.193412	0.440899	0.869291
	H3319	H	0.200171	0.441058	0.868307
	H3320	H	0.196285	0.440883	1.001898
	H3321	H	0.187861	0.441002	1.002017
	H3322	H	0.181362	0.564835	0.998104
	H3323	H	0.192100	0.564385	0.873189
	H3324	H	0.187823	0.564868	1.002034
	H3325	H	0.196385	0.564217	1.001873
	H3326	H	0.200178	0.564481	0.868232
	H3327	H	0.193426	0.564171	0.869296
	H3328	H	0.220434	0.143869	0.974914
	H3329	H	0.220142	0.362850	0.974848
	H3330	H	0.185582	0.064544	0.871804
	H3331	H	0.190943	0.064335	0.876047
	H3332	H	0.194364	0.064721	0.866454
	H3333	H	0.165982	0.862607	0.974058
	H3334	H	0.165507	0.642765	0.974134
	H3335	H	0.165525	0.361924	0.974123
	H3336	H	0.166070	0.142504	0.974006
	H3337	H	0.170369	0.143496	0.895098
	H3338	H	0.225188	0.143009	0.895964
	H3339	H	0.225376	0.362629	0.895935
	H3340	H	0.170868	0.362968	0.895143
	H3341	H	0.228311	0.143416	0.911684
	H3342	H	0.228559	0.362754	0.911627
	H3343	H	0.196378	0.064280	0.995412
	H3344	H	0.189098	0.064239	0.995028
	H3345	H	0.183170	0.064558	0.998166
	H3346	H	0.190976	0.940795	0.876034
	H3347	H	0.185481	0.940870	0.871785
	H3348	H	0.194419	0.941026	0.866446
	H3349	H	0.196359	0.940921	0.995476
	H3350	H	0.189139	0.941175	0.995076
	H3351	H	0.183192	0.941009	0.998171
	Zn3352	Zn	0.136654	0.680464	0.934153
	Zn3353	Zn	0.136931	0.825411	0.934210
	Zn3354	Zn	0.136896	0.180271	0.934145
	Zn3355	Zn	0.136760	0.325163	0.934168
	Zn3356	Zn	0.191554	0.680406	0.998297
	Zn3357	Zn	0.191824	0.825405	0.998344
	Zn3358	Zn	0.191923	0.180144	0.998349
	Zn3359	Zn	0.191493	0.325127	0.998352
	C3360	C	0.231983	0.752501	0.922017
	C3361	C	0.159264	0.752229	0.948044
	C3362	C	0.162745	0.752358	0.957439
	C3363	C	0.163391	0.690304	0.961905
	C3364	C	0.163645	0.814599	0.961864
	C3365	C	0.159254	0.252956	0.948002
	C3366	C	0.162800	0.252678	0.957407
	C3367	C	0.163677	0.190520	0.961827
	C3368	C	0.163372	0.314572	0.961897
	C3369	C	0.159853	0.752252	0.920814
	C3370	C	0.164776	0.752334	0.911590
	C3371	C	0.165970	0.814615	0.907186
	C3372	C	0.166550	0.690364	0.907202
	C3373	C	0.159741	0.253374	0.920817
	C3374	C	0.164739	0.253251	0.911582
	C3375	C	0.166358	0.315347	0.907192
	C3376	C	0.166098	0.191241	0.907163
	C3377	C	0.257211	0.043211	0.937635
	C3378	C	0.257172	0.962477	0.937654
	C3379	C	0.131602	0.043189	0.937790
	C3380	C	0.131629	0.962444	0.937789
	C3381	C	0.147578	0.043378	0.934313
	C3382	C	0.147594	0.962472	0.934310
	C3383	C	0.139602	0.462653	0.934448
	C3384	C	0.241261	0.462235	0.932962
	C3385	C	0.267151	0.462456	0.932868
	C3386	C	0.139627	0.543226	0.934461
	C3387	C	0.267116	0.543347	0.932854
	C3388	C	0.241205	0.543031	0.932966
	C3389	C	0.231187	0.752197	0.949240
	C3390	C	0.231164	0.253281	0.949192
	C3391	C	0.226235	0.752045	0.958448
	C3392	C	0.224732	0.689997	0.962860
	C3393	C	0.224796	0.814163	0.962848
	C3394	C	0.226178	0.253267	0.958408
	C3395	C	0.224788	0.191359	0.962838
	C3396	C	0.224623	0.315350	0.962784
	C3397	C	0.231993	0.252895	0.922012
	C3398	C	0.221970	0.753036	0.885589
	C3399	C	0.176233	0.752633	0.884978
	C3400	C	0.169307	0.752994	0.984450
	C3401	C	0.227783	0.690583	0.908159
	C3402	C	0.227622	0.814936	0.908178
	C3403	C	0.225454	0.752901	0.894992
	C3404	C	0.170948	0.752535	0.894180
	C3405	C	0.169677	0.690459	0.898591
	C3406	C	0.226248	0.690689	0.899435
	C3407	C	0.226091	0.815042	0.899459
	C3408	C	0.169083	0.814737	0.898571
	C3409	C	0.228434	0.752678	0.912617
	C3410	C	0.215055	0.752336	0.985050
	C3411	C	0.221663	0.690086	0.971474
	C3412	C	0.221752	0.814283	0.971465
	C3413	C	0.220197	0.752183	0.975853
	C3414	C	0.185405	0.462227	0.997088
	C3415	C	0.197616	0.462331	0.869555
	C3416	C	0.191919	0.462334	1.001005
	C3417	C	0.185383	0.543142	0.997079
	C3418	C	0.191943	0.543025	1.001008
	C3419	C	0.197595	0.543202	0.869528
	C3420	C	0.215071	0.253258	0.985054
	C3421	C	0.221702	0.191406	0.971454
	C3422	C	0.221537	0.315355	0.971404
	C3423	C	0.220109	0.253358	0.975833
	C3424	C	0.191294	0.043061	0.873334
	C3425	C	0.221796	0.252978	0.885576
	C3426	C	0.176077	0.253095	0.884949
	C3427	C	0.169337	0.252024	0.984447
	C3428	C	0.227618	0.190945	0.908158
	C3429	C	0.227759	0.315070	0.908120
	C3430	C	0.225361	0.252879	0.894955
	C3431	C	0.170844	0.253193	0.894151
	C3432	C	0.165722	0.752778	0.975055
	C3433	C	0.165181	0.814801	0.970586
	C3434	C	0.164908	0.690467	0.970628
	C3435	C	0.165744	0.252202	0.975046
	C3436	C	0.164933	0.314333	0.970617
	C3437	C	0.165188	0.190306	0.970549
	C3438	C	0.169198	0.191244	0.898544
	C3439	C	0.226049	0.190871	0.899434
	C3440	C	0.226130	0.314933	0.899399
	C3441	C	0.169452	0.315263	0.898573
	C3442	C	0.228435	0.253035	0.912593
	C3443	C	0.192486	0.042992	0.996050
	C3444	C	0.200182	0.043234	0.867968
	C3445	C	0.191281	0.962227	0.873323
	C3446	C	0.192468	0.962341	0.996067
	C3447	C	0.200207	0.962492	0.867940
	N3448	N	0.136934	0.070020	0.934206
	N3449	N	0.136982	0.935505	0.934213
	N3450	N	0.136794	0.435519	0.934162
	N3451	N	0.136819	0.570151	0.934180
	N3452	N	0.191468	0.435419	0.998317
	N3453	N	0.191522	0.570047	0.998303
	N3454	N	0.191857	0.069892	0.998301
	N3455	N	0.191845	0.935337	0.998333
	O3456	O	0.345120	0.694822	0.053723
	O3457	O	0.345284	0.811586	0.053729
	O3458	O	0.268758	0.694000	0.072613
	O3459	O	0.268701	0.810737	0.072627
	O3460	O	0.268681	0.194320	0.072627
	O3461	O	0.268774	0.311228	0.072596
	O3462	O	0.269102	0.694273	0.052546
	O3463	O	0.269232	0.811017	0.052569
	O3464	O	0.269071	0.194241	0.052476
	O3465	O	0.268887	0.310905	0.052456
	O3466	O	0.344925	0.694621	0.073930
	O3467	O	0.344597	0.811226	0.073881
	O3468	O	0.344772	0.194715	0.073878
	O3469	O	0.345018	0.311496	0.073922
	O3470	O	0.345298	0.194851	0.053753
	O3471	O	0.345037	0.311708	0.053723
	O3472	O	0.331252	0.694347	0.010128
	O3473	O	0.290395	0.694361	0.009652
	O3474	O	0.323893	0.695188	0.116779
	O3475	O	0.323616	0.811830	0.116785
	O3476	O	0.283007	0.693663	0.116209
	O3477	O	0.282549	0.810371	0.116242
	O3478	O	0.290452	0.811086	0.009669
	O3479	O	0.331482	0.811267	0.010111
	O3480	O	0.331702	0.194821	0.010093
	O3481	O	0.290616	0.193917	0.009674
	O3482	O	0.323778	0.194207	0.116829
	O3483	O	0.323895	0.310854	0.116793
	O3484	O	0.282695	0.195147	0.116222
	O3485	O	0.283079	0.312078	0.116178
	O3486	O	0.290212	0.310782	0.009622
	O3487	O	0.331228	0.311587	0.010147
	H3488	H	0.274497	0.642413	0.086567
	H3489	H	0.273810	0.861940	0.086599
	H3490	H	0.274057	0.143192	0.086591
	H3491	H	0.274432	0.363188	0.086549
	H3492	H	0.277041	0.862695	0.038858
	H3493	H	0.276676	0.642857	0.038833
	H3494	H	0.276261	0.362285	0.038748
	H3495	H	0.276920	0.142579	0.038803
	H3496	H	0.360548	0.064822	0.061334
	H3497	H	0.357058	0.064263	0.063658
	H3498	H	0.357080	0.941281	0.063670
	H3499	H	0.360734	0.941100	0.061377
	H3500	H	0.370103	0.064736	0.061509
	H3501	H	0.370135	0.940944	0.061508
	H3502	H	0.246725	0.064359	0.057005
	H3503	H	0.246745	0.940702	0.057000
	H3504	H	0.237045	0.063863	0.059326
	H3505	H	0.236931	0.941282	0.059337
	H3506	H	0.237574	0.064293	0.065526
	H3507	H	0.237633	0.940860	0.065541
	H3508	H	0.259834	0.440528	0.060244
	H3509	H	0.251513	0.440890	0.057532
	H3510	H	0.257583	0.441095	0.065937
	H3511	H	0.365018	0.441209	0.058654
	H3512	H	0.377990	0.441370	0.062210
	H3513	H	0.377036	0.441410	0.066702
	H3514	H	0.251580	0.564398	0.057517
	H3515	H	0.259798	0.564722	0.060261
	H3516	H	0.377085	0.565268	0.066686
	H3517	H	0.377754	0.564706	0.062203
	H3518	H	0.365002	0.564878	0.058694
	H3519	H	0.257505	0.564081	0.065927
	H3520	H	0.337770	0.643484	0.087688
	H3521	H	0.337110	0.863000	0.087557
	H3522	H	0.337250	0.143194	0.087542
	H3523	H	0.337528	0.362737	0.087675
	H3524	H	0.282176	0.642723	0.023304
	H3525	H	0.336759	0.643106	0.024081
	H3526	H	0.337241	0.862679	0.024018
	H3527	H	0.282506	0.862575	0.023335
	H3528	H	0.339598	0.643277	0.039797
	H3529	H	0.340135	0.863090	0.039735
	H3530	H	0.332212	0.643741	0.103182
	H3531	H	0.331540	0.863339	0.103101
	H3532	H	0.315471	0.441096	0.001178
	H3533	H	0.297837	0.440954	0.126856
	H3534	H	0.309370	0.441350	0.001901
	H3535	H	0.306018	0.441358	0.000670
	H3536	H	0.306586	0.440867	0.128171
	H3537	H	0.302254	0.441341	0.128605
	H3538	H	0.297842	0.564359	0.126877
	H3539	H	0.315528	0.564291	0.001171
	H3540	H	0.302327	0.564220	0.128633
	H3541	H	0.306538	0.564443	0.128175
	H3542	H	0.306110	0.564659	0.000606
	H3543	H	0.309496	0.564894	0.001891
	H3544	H	0.331724	0.142799	0.103097
	H3545	H	0.332054	0.362380	0.103196
	H3546	H	0.309455	0.064269	0.003929
	H3547	H	0.318034	0.064107	0.003132
	H3548	H	0.300929	0.064710	0.000444
	H3549	H	0.276778	0.861826	0.102282
	H3550	H	0.277484	0.642429	0.102276
	H3551	H	0.277436	0.363459	0.102267
	H3552	H	0.277077	0.143380	0.102292
	H3553	H	0.282723	0.142444	0.023308
	H3554	H	0.337060	0.143219	0.024088
	H3555	H	0.336575	0.362802	0.024035
	H3556	H	0.282044	0.362095	0.023248
	H3557	H	0.339989	0.143275	0.039797
	H3558	H	0.339421	0.363094	0.039759
	H3559	H	0.299605	0.064277	0.126896
	H3560	H	0.301456	0.064747	0.127706
	H3561	H	0.304995	0.064615	0.127456
	H3562	H	0.317985	0.940425	0.003088
	H3563	H	0.309431	0.940915	0.003933
	H3564	H	0.300890	0.941003	0.000487
	H3565	H	0.299697	0.941338	0.126880
	H3566	H	0.301409	0.941004	0.127705
	H3567	H	0.304997	0.941035	0.127455
	Zn3568	Zn	0.248391	0.680547	0.062336
	Zn3569	Zn	0.248483	0.825115	0.062333
	Zn3570	Zn	0.248512	0.180140	0.062388
	Zn3571	Zn	0.248455	0.324704	0.062354
	Zn3572	Zn	0.303092	0.680364	0.126500
	Zn3573	Zn	0.302720	0.825564	0.126566
	Zn3574	Zn	0.302690	0.180319	0.126549
	Zn3575	Zn	0.303080	0.325274	0.126515
	C3576	C	0.343173	0.753205	0.050130
	C3577	C	0.270817	0.752342	0.076216
	C3578	C	0.274271	0.752200	0.085613
	C3579	C	0.275124	0.690056	0.090062
	C3580	C	0.274738	0.814271	0.090070
	C3581	C	0.270867	0.252853	0.076195
	C3582	C	0.274327	0.253160	0.085603
	C3583	C	0.274870	0.191074	0.090062
	C3584	C	0.275102	0.315505	0.090044
	C3585	C	0.271769	0.752666	0.049054
	C3586	C	0.276682	0.752786	0.039818
	C3587	C	0.278223	0.814906	0.035409
	C3588	C	0.278030	0.690575	0.035391
	C3589	C	0.271550	0.252559	0.048957
	C3590	C	0.276476	0.252492	0.039739
	C3591	C	0.277756	0.314535	0.035326
	C3592	C	0.278139	0.190308	0.035355
	C3593	C	0.360528	0.043424	0.062923
	C3594	C	0.360557	0.962583	0.062935
	C3595	C	0.243608	0.042792	0.059275
	C3596	C	0.243611	0.962246	0.059268
	C3597	C	0.244172	0.043231	0.065535
	C3598	C	0.244219	0.962114	0.065532
	C3599	C	0.253765	0.462062	0.059810
	C3600	C	0.361289	0.462521	0.060765
	C3601	C	0.374277	0.462713	0.064342
	C3602	C	0.253759	0.543224	0.059798
	C3603	C	0.374253	0.543563	0.064341
	C3604	C	0.361290	0.543595	0.060794
	C3605	C	0.342257	0.752948	0.077420
	C3606	C	0.342348	0.253066	0.077407
	C3607	C	0.337490	0.753175	0.086655
	C3608	C	0.336325	0.691214	0.091104
	C3609	C	0.335957	0.815404	0.091040
	C3610	C	0.337476	0.252962	0.086646
	C3611	C	0.335956	0.190674	0.091029
	C3612	C	0.336140	0.314914	0.091098
	C3613	C	0.343109	0.253207	0.050151
	C3614	C	0.333488	0.752793	0.013691
	C3615	C	0.287698	0.752693	0.013149
	C3616	C	0.280649	0.752026	0.112637
	C3617	C	0.338989	0.690947	0.036294
	C3618	C	0.339267	0.815285	0.036256
	C3619	C	0.336967	0.752823	0.023103
	C3620	C	0.282559	0.752671	0.022369
	C3621	C	0.280993	0.690528	0.026763
	C3622	C	0.337560	0.690801	0.027566
	C3623	C	0.337833	0.815066	0.027529
	C3624	C	0.281166	0.814823	0.026780
	C3625	C	0.339775	0.753208	0.040723
	C3626	C	0.326420	0.753574	0.113292
	C3627	C	0.333293	0.691421	0.099717
	C3628	C	0.332920	0.815586	0.099661
	C3629	C	0.331570	0.753537	0.104084
	C3630	C	0.299652	0.462256	0.126127
	C3631	C	0.308636	0.462403	0.000903
	C3632	C	0.304075	0.462358	0.127904
	C3633	C	0.299646	0.543210	0.126144
	C3634	C	0.304075	0.543101	0.127895
	C3635	C	0.308652	0.543382	0.000872
	C3636	C	0.326550	0.252439	0.113323
	C3637	C	0.332995	0.190450	0.099665
	C3638	C	0.333175	0.314679	0.099723
	C3639	C	0.331572	0.252473	0.104099
	C3640	C	0.313116	0.043040	0.002556
	C3641	C	0.333485	0.253146	0.013714
	C3642	C	0.287751	0.252333	0.013134
	C3643	C	0.280855	0.253578	0.112610
	C3644	C	0.339171	0.190993	0.036304
	C3645	C	0.338846	0.315281	0.036277
	C3646	C	0.336849	0.252996	0.023125
	C3647	C	0.282619	0.252401	0.022336
	C3648	C	0.277198	0.752152	0.103229
	C3649	C	0.276244	0.814181	0.098784
	C3650	C	0.276618	0.690073	0.098788
	C3651	C	0.277344	0.253433	0.103210
	C3652	C	0.276680	0.315710	0.098763
	C3653	C	0.276425	0.191135	0.098782
	C3654	C	0.281260	0.190225	0.026741
	C3655	C	0.337699	0.190918	0.027582
	C3656	C	0.337388	0.315176	0.027551
	C3657	C	0.280862	0.314545	0.026714
	C3658	C	0.339687	0.253177	0.040746
	C3659	C	0.301103	0.043335	0.127115
	C3660	C	0.304526	0.043231	-0.000928
	C3661	C	0.313069	0.962293	0.002557
	C3662	C	0.301096	0.962412	0.127119
	C3663	C	0.304476	0.962266	-0.000925
	N3664	N	0.248462	0.069900	0.062382
	N3665	N	0.248489	0.935308	0.062374
	N3666	N	0.248479	0.435310	0.062331
	N3667	N	0.248466	0.570000	0.062323
	N3668	N	0.303119	0.435534	0.126545
	N3669	N	0.303111	0.570043	0.126537
	N3670	N	0.302728	0.070130	0.126574
	N3671	N	0.302732	0.935622	0.126558
	O3672	O	0.339824	0.694422	0.180257
	O3673	O	0.339502	0.811143	0.180289
	O3674	O	0.261571	0.694859	0.199325
	O3675	O	0.261093	0.811269	0.199381
	O3676	O	0.261297	0.193907	0.199374
	O3677	O	0.261558	0.310600	0.199303
	O3678	O	0.262095	0.694942	0.179365
	O3679	O	0.261523	0.811696	0.179262
	O3680	O	0.261527	0.194089	0.179278
	O3681	O	0.262034	0.310745	0.179370
	O3682	O	0.339586	0.694322	0.200262
	O3683	O	0.339350	0.811108	0.200227
	O3684	O	0.339404	0.193875	0.200228
	O3685	O	0.339416	0.310659	0.200275
	O3686	O	0.339508	0.194581	0.180326
	O3687	O	0.339885	0.311206	0.180295
	O3688	O	0.323445	0.694873	0.136781
	O3689	O	0.282596	0.694009	0.136397
	O3690	O	0.318704	0.695579	0.243238
	O3691	O	0.318179	0.812064	0.243123
	O3692	O	0.277823	0.693565	0.242866
	O3693	O	0.277192	0.810212	0.242939
	O3694	O	0.282119	0.810667	0.136339
	O3695	O	0.323130	0.811638	0.136789
	O3696	O	0.322953	0.194142	0.136837
	O3697	O	0.282097	0.195439	0.136318
	O3698	O	0.317996	0.193093	0.243055
	O3699	O	0.318766	0.309819	0.243180
	O3700	O	0.277101	0.195396	0.242921
	O3701	O	0.277788	0.312046	0.242780
	O3702	O	0.282572	0.312060	0.136376
	O3703	O	0.323543	0.310804	0.136757
	H3704	H	0.268096	0.642908	0.213240
	H3705	H	0.267054	0.862459	0.213357
	H3706	H	0.266848	0.143012	0.213359
	H3707	H	0.267922	0.362505	0.213170
	H3708	H	0.268707	0.862992	0.165489
	H3709	H	0.270093	0.643086	0.165710
	H3710	H	0.269978	0.362258	0.165713
	H3711	H	0.268856	0.143095	0.165491
	H3712	H	0.360007	0.064357	0.199578
	H3713	H	0.377656	0.064272	0.196658
	H3714	H	0.377698	0.941091	0.196618
	H3715	H	0.359854	0.940976	0.199595
	H3716	H	0.338442	0.065143	0.193211
	H3717	H	0.338368	0.941376	0.193200
	H3718	H	0.251273	0.064851	0.186935
	H3719	H	0.251213	0.941706	0.186902
	H3720	H	0.243224	0.064807	0.184557
	H3721	H	0.243268	0.941214	0.184548
	H3722	H	0.230962	0.064691	0.186657
	H3723	H	0.230810	0.940797	0.186646
	H3724	H	0.246730	0.441081	0.185135
	H3725	H	0.236963	0.440987	0.184863
	H3726	H	0.252703	0.441677	0.189820
	H3727	H	0.366678	0.441231	0.186532
	H3728	H	0.371998	0.440825	0.191631
	H3729	H	0.365867	0.441492	0.194756
	H3730	H	0.237071	0.564319	0.184874
	H3731	H	0.246547	0.564603	0.185146
	H3732	H	0.365848	0.564553	0.194745
	H3733	H	0.372056	0.565077	0.191606
	H3734	H	0.366778	0.564108	0.186497
	H3735	H	0.252720	0.564435	0.189804
	H3736	H	0.331652	0.642691	0.213952
	H3737	H	0.330837	0.862666	0.213839
	H3738	H	0.331297	0.142051	0.213851
	H3739	H	0.331458	0.361860	0.213950
	H3740	H	0.275606	0.642687	0.150200
	H3741	H	0.329874	0.643201	0.150673
	H3742	H	0.329487	0.862823	0.150694
	H3743	H	0.274181	0.862339	0.149955
	H3744	H	0.333546	0.643263	0.166358
	H3745	H	0.333189	0.862780	0.166363
	H3746	H	0.326166	0.643173	0.229480
	H3747	H	0.325376	0.863047	0.229367
	H3748	H	0.299007	0.440782	0.125122
	H3749	H	0.305571	0.440784	0.251958
	H3750	H	0.304991	0.441143	0.124567
	H3751	H	0.308152	0.441363	0.125864
	H3752	H	0.292287	0.440692	0.251114
	H3753	H	0.298092	0.441032	0.250000
	H3754	H	0.305560	0.564235	0.252004
	H3755	H	0.298985	0.564423	0.125157
	H3756	H	0.298069	0.564502	0.250014
	H3757	H	0.292272	0.564122	0.251142
	H3758	H	0.308092	0.564852	0.125823
	H3759	H	0.304886	0.564593	0.124535
	H3760	H	0.325654	0.141754	0.229350
	H3761	H	0.325821	0.361519	0.229456
	H3762	H	0.303410	0.064781	0.125384
	H3763	H	0.300899	0.064300	0.125555
	H3764	H	0.305893	0.064740	0.126501
	H3765	H	0.270860	0.861991	0.229027
	H3766	H	0.271928	0.642396	0.228896
	H3767	H	0.271688	0.363142	0.228818
	H3768	H	0.270609	0.143873	0.229044
	H3769	H	0.274184	0.143844	0.149969
	H3770	H	0.328771	0.142972	0.150749
	H3771	H	0.330028	0.362531	0.150679
	H3772	H	0.275404	0.363173	0.150189
	H3773	H	0.332616	0.143108	0.166415
	H3774	H	0.333888	0.362595	0.166352
	H3775	H	0.302061	0.064572	0.250609
	H3776	H	0.295755	0.064443	0.250158
	H3777	H	0.290274	0.064367	0.252751
	H3778	H	0.300847	0.941316	0.125572
	H3779	H	0.303420	0.941008	0.125398
	H3780	H	0.305785	0.941145	0.126459
	H3781	H	0.302150	0.940806	0.250581
	H3782	H	0.295840	0.941196	0.250134
	H3783	H	0.290288	0.940724	0.252770
	Zn3784	Zn	0.241247	0.680203	0.189105
	Zn3785	Zn	0.240780	0.825339	0.189128
	Zn3786	Zn	0.240839	0.180377	0.189110
	Zn3787	Zn	0.241190	0.325450	0.189077
	Zn3788	Zn	0.298395	0.680009	0.253104
	Zn3789	Zn	0.297895	0.825188	0.253078
	Zn3790	Zn	0.297815	0.179930	0.253015
	Zn3791	Zn	0.298387	0.325287	0.253022
	C3792	C	0.337370	0.752808	0.176691
	C3793	C	0.263560	0.753046	0.202953
	C3794	C	0.267564	0.752822	0.212320
	C3795	C	0.268806	0.690571	0.216746
	C3796	C	0.268222	0.814624	0.216809
	C3797	C	0.263597	0.252356	0.202924
	C3798	C	0.267489	0.252724	0.212293
	C3799	C	0.268013	0.190922	0.216801
	C3800	C	0.268640	0.314973	0.216685
	C3801	C	0.264381	0.753253	0.175811
	C3802	C	0.269297	0.753104	0.166575
	C3803	C	0.270332	0.815112	0.162098
	C3804	C	0.271111	0.690778	0.162230
	C3805	C	0.264389	0.252457	0.175809
	C3806	C	0.269321	0.252679	0.166574
	C3807	C	0.270998	0.314855	0.162216
	C3808	C	0.270380	0.190915	0.162087
	C3809	C	0.366566	0.043087	0.196091
	C3810	C	0.366552	0.962369	0.196101
	C3811	C	0.245604	0.043313	0.186634
	C3812	C	0.245581	0.962607	0.186619
	C3813	C	0.233146	0.043222	0.188735
	C3814	C	0.233111	0.962350	0.188721
	C3815	C	0.241689	0.462440	0.186077
	C3816	C	0.361285	0.462612	0.187354
	C3817	C	0.366624	0.462386	0.192468
	C3818	C	0.241706	0.543277	0.186087
	C3819	C	0.366675	0.543491	0.192464
	C3820	C	0.361340	0.542824	0.187300
	C3821	C	0.336697	0.752717	0.203738
	C3822	C	0.336792	0.252213	0.203739
	C3823	C	0.331370	0.752695	0.212936
	C3824	C	0.330157	0.690603	0.217384
	C3825	C	0.329702	0.814925	0.217320
	C3826	C	0.331486	0.252064	0.212923
	C3827	C	0.329943	0.189782	0.217303
	C3828	C	0.330062	0.314012	0.217368
	C3829	C	0.337381	0.252870	0.176727
	C3830	C	0.325570	0.753241	0.140355
	C3831	C	0.279805	0.752280	0.139877
	C3832	C	0.275265	0.751940	0.239321
	C3833	C	0.332651	0.690877	0.162875
	C3834	C	0.332421	0.815043	0.162877
	C3835	C	0.329595	0.753081	0.149719
	C3836	C	0.275011	0.752390	0.149119
	C3837	C	0.274011	0.690488	0.153602
	C3838	C	0.330682	0.690926	0.154166
	C3839	C	0.330449	0.815141	0.154173
	C3840	C	0.273243	0.814709	0.153465
	C3841	C	0.333433	0.752934	0.167317
	C3842	C	0.320845	0.753698	0.239649
	C3843	C	0.327214	0.690906	0.226017
	C3844	C	0.326750	0.815101	0.225948
	C3845	C	0.325588	0.753207	0.230407
	C3846	C	0.303574	0.462127	0.253193
	C3847	C	0.305616	0.462406	0.125541
	C3848	C	0.296032	0.462090	0.251201
	C3849	C	0.303562	0.543161	0.253215
	C3850	C	0.296042	0.543045	0.251224
	C3851	C	0.305592	0.543239	0.125540
	C3852	C	0.320843	0.251557	0.239597
	C3853	C	0.326931	0.189558	0.225927
	C3854	C	0.327081	0.313863	0.225991
	C3855	C	0.325694	0.251633	0.230370
	C3856	C	0.302267	0.043201	0.125767
	C3857	C	0.325489	0.252543	0.140379
	C3858	C	0.279831	0.253741	0.139864
	C3859	C	0.275216	0.253578	0.239271
	C3860	C	0.332000	0.190847	0.162921
	C3861	C	0.332708	0.314908	0.162885
	C3862	C	0.329510	0.252761	0.149747
	C3863	C	0.274977	0.253504	0.149095
	C3864	C	0.271309	0.752231	0.229956
	C3865	C	0.270136	0.814299	0.225519
	C3866	C	0.270715	0.690316	0.225457
	C3867	C	0.271161	0.253548	0.229899
	C3868	C	0.270576	0.315299	0.225384
	C3869	C	0.269954	0.191347	0.225510
	C3870	C	0.273279	0.191324	0.153462
	C3871	C	0.330035	0.190737	0.154211
	C3872	C	0.330753	0.314850	0.154177
	C3873	C	0.273906	0.315279	0.153585
	C3874	C	0.333306	0.252928	0.167363
	C3875	C	0.298651	0.043003	0.251074
	C3876	C	0.304684	0.043322	0.126869
	C3877	C	0.302267	0.962432	0.125774
	C3878	C	0.298702	0.962171	0.251076
	C3879	C	0.304685	0.962535	0.126883
	N3880	N	0.240968	0.070053	0.189126
	N3881	N	0.240954	0.935462	0.189121
	N3882	N	0.241297	0.435740	0.189094
	N3883	N	0.241337	0.570222	0.189101
	N3884	N	0.298382	0.435424	0.253049
	N3885	N	0.298371	0.569904	0.253076
	N3886	N	0.297871	0.069724	0.253042
	N3887	N	0.297891	0.935269	0.253065
	O3888	O	0.326817	0.694025	0.307144
	O3889	O	0.326588	0.810779	0.307194
	O3890	O	0.255370	0.694255	0.325735
	O3891	O	0.255654	0.810945	0.325726
	O3892	O	0.255575	0.194955	0.325711
	O3893	O	0.255481	0.311708	0.325708
	O3894	O	0.255584	0.693740	0.305618
	O3895	O	0.255475	0.810456	0.305531
	O3896	O	0.255460	0.195065	0.305554
	O3897	O	0.255658	0.311948	0.305630
	O3898	O	0.329237	0.694015	0.328311
	O3899	O	0.329069	0.810624	0.328306
	O3900	O	0.329254	0.194894	0.328316
	O3901	O	0.329199	0.311455	0.328327
	O3902	O	0.326847	0.194777	0.307107
	O3903	O	0.326988	0.311608	0.307087
	O3904	O	0.318566	0.695441	0.263332
	O3905	O	0.277329	0.693547	0.262796
	O3906	O	0.304852	0.694023	0.370696
	O3907	O	0.304842	0.810835	0.370636
	O3908	O	0.263606	0.694360	0.369520
	O3909	O	0.263628	0.811144	0.369545
	O3910	O	0.277095	0.810301	0.262758
	O3911	O	0.318311	0.812179	0.263372
	O3912	O	0.318304	0.193269	0.263283
	O3913	O	0.277146	0.195644	0.262775
	O3914	O	0.305012	0.194406	0.370712
	O3915	O	0.304835	0.311258	0.370693
	O3916	O	0.263728	0.194590	0.369553
	O3917	O	0.263714	0.311408	0.369527
	O3918	O	0.277455	0.312316	0.262761
	O3919	O	0.318734	0.310079	0.263226
	H3920	H	0.259712	0.642519	0.339748
	H3921	H	0.259884	0.862611	0.339781
	H3922	H	0.260037	0.143167	0.339730
	H3923	H	0.259845	0.363212	0.339759
	H3924	H	0.262776	0.861873	0.291856
	H3925	H	0.263295	0.642087	0.291933
	H3926	H	0.263411	0.363665	0.291920
	H3927	H	0.262887	0.144155	0.291862
	H3928	H	0.341082	0.064999	0.314990
	H3929	H	0.337523	0.064699	0.317286
	H3930	H	0.337418	0.940888	0.317248
	H3931	H	0.341147	0.940992	0.314985
	H3932	H	0.350453	0.064764	0.315145
	H3933	H	0.350548	0.941752	0.315134
	H3934	H	0.221443	0.064633	0.309466
	H3935	H	0.221303	0.940969	0.309447
	H3936	H	0.214953	0.064439	0.315627
	H3937	H	0.214978	0.941135	0.315627
	H3938	H	0.229274	0.064638	0.323025
	H3939	H	0.229211	0.941375	0.323036
	H3940	H	0.232514	0.441209	0.314856
	H3941	H	0.232194	0.440843	0.315796
	H3942	H	0.235519	0.441016	0.314422
	H3943	H	0.344651	0.440786	0.313998
	H3944	H	0.354140	0.440792	0.316051
	H3945	H	0.354506	0.441321	0.319193
	H3946	H	0.232168	0.564367	0.315820
	H3947	H	0.232481	0.564451	0.314857
	H3948	H	0.354465	0.564743	0.319185
	H3949	H	0.354219	0.564531	0.316063
	H3950	H	0.344608	0.564068	0.313981
	H3951	H	0.235460	0.564897	0.314374
	H3952	H	0.322704	0.642584	0.342035
	H3953	H	0.322888	0.861671	0.342018
	H3954	H	0.323139	0.143739	0.342017
	H3955	H	0.322366	0.362531	0.342047
	H3956	H	0.269228	0.641976	0.276434
	H3957	H	0.323188	0.644112	0.277289
	H3958	H	0.322167	0.863458	0.277441
	H3959	H	0.268685	0.861847	0.276346
	H3960	H	0.324239	0.643162	0.293009
	H3961	H	0.323169	0.862674	0.293157
	H3962	H	0.315296	0.642687	0.357415
	H3963	H	0.315514	0.861759	0.357390
	H3964	H	0.305268	0.440810	0.254539
	H3965	H	0.284153	0.441151	0.375890
	H3966	H	0.297300	0.441085	0.256053
	H3967	H	0.291785	0.441189	0.254613
	H3968	H	0.272449	0.440756	0.381572
	H3969	H	0.272999	0.441409	0.377986
	H3970	H	0.284087	0.564752	0.375887
	H3971	H	0.305224	0.564516	0.254570
	H3972	H	0.272979	0.564381	0.378021
	H3973	H	0.272452	0.564749	0.381549
	H3974	H	0.291818	0.564254	0.254627
	H3975	H	0.297253	0.564197	0.256101
	H3976	H	0.315756	0.143408	0.357415
	H3977	H	0.315008	0.362283	0.357407
	H3978	H	0.301231	0.064327	0.255758
	H3979	H	0.305227	0.064583	0.253820
	H3980	H	0.292564	0.064035	0.255122
	H3981	H	0.260744	0.862589	0.355482
	H3982	H	0.260671	0.642645	0.355455
	H3983	H	0.260752	0.362845	0.355477
	H3984	H	0.260946	0.142992	0.355446
	H3985	H	0.268745	0.144319	0.276346
	H3986	H	0.322185	0.142114	0.277377
	H3987	H	0.323499	0.361927	0.277244
	H3988	H	0.269295	0.363934	0.276406
	H3989	H	0.323300	0.142890	0.293116
	H3990	H	0.324552	0.362581	0.292953
	H3991	H	0.282887	0.064651	0.376982
	H3992	H	0.276699	0.064444	0.377867
	H3993	H	0.275381	0.064660	0.381477
	H3994	H	0.305293	0.940376	0.253882
	H3995	H	0.301210	0.940795	0.255781
	H3996	H	0.292566	0.941279	0.255176
	H3997	H	0.282941	0.941181	0.376953
	H3998	H	0.276693	0.941058	0.377869
	H3999	H	0.275374	0.941092	0.381459
	Zn4000	Zn	0.234926	0.680244	0.315490
	Zn4001	Zn	0.235241	0.824826	0.315420
	Zn4002	Zn	0.235284	0.180620	0.315439
	Zn4003	Zn	0.234993	0.325146	0.315463
	Zn4004	Zn	0.282656	0.680317	0.380103
	Zn4005	Zn	0.282777	0.825309	0.380087
	Zn4006	Zn	0.282689	0.180416	0.380112
	Zn4007	Zn	0.282714	0.325408	0.380115
	C4008	C	0.325337	0.752487	0.303518
	C4009	C	0.257323	0.752600	0.329351
	C4010	C	0.259946	0.752596	0.338785
	C4011	C	0.260084	0.690359	0.343230
	C4012	C	0.260128	0.814732	0.343256
	C4013	C	0.257271	0.253394	0.329341
	C4014	C	0.259885	0.253218	0.338784
	C4015	C	0.260238	0.190910	0.343235
	C4016	C	0.260061	0.315372	0.343251
	C4017	C	0.258035	0.751966	0.302063
	C4018	C	0.262959	0.752033	0.292847
	C4019	C	0.264295	0.814196	0.288415
	C4020	C	0.264553	0.689796	0.288468
	C4021	C	0.258041	0.253611	0.302085
	C4022	C	0.262914	0.253850	0.292842
	C4023	C	0.264583	0.315986	0.288452
	C4024	C	0.264261	0.191897	0.288420
	C4025	C	0.340911	0.043530	0.316529
	C4026	C	0.340903	0.962384	0.316532
	C4027	C	0.222634	0.043207	0.313295
	C4028	C	0.222634	0.962231	0.313286
	C4029	C	0.237027	0.043206	0.320751
	C4030	C	0.237016	0.962402	0.320753
	C4031	C	0.233001	0.462482	0.315368
	C4032	C	0.342427	0.462327	0.315571
	C4033	C	0.352036	0.462314	0.317638
	C4034	C	0.232989	0.543221	0.315378
	C4035	C	0.352050	0.543121	0.317644
	C4036	C	0.342397	0.542992	0.315563
	C4037	C	0.327201	0.752255	0.331868
	C4038	C	0.327325	0.253175	0.331875
	C4039	C	0.322786	0.752162	0.341098
	C4040	C	0.321057	0.690186	0.345466
	C4041	C	0.321173	0.814214	0.345444
	C4042	C	0.322844	0.253131	0.341095
	C4043	C	0.321340	0.191063	0.345447
	C4044	C	0.320900	0.314979	0.345458
	C4045	C	0.325578	0.253113	0.303448
	C4046	C	0.320230	0.753823	0.266969
	C4047	C	0.274466	0.751938	0.266252
	C4048	C	0.262301	0.752770	0.365880
	C4049	C	0.323598	0.691027	0.289546
	C4050	C	0.323046	0.815164	0.289637
	C4051	C	0.322839	0.753734	0.276404
	C4052	C	0.269078	0.751919	0.275437
	C4053	C	0.267662	0.689790	0.279854
	C4054	C	0.323293	0.691470	0.280812
	C4055	C	0.322725	0.815607	0.280906
	C4056	C	0.267408	0.814128	0.279804
	C4057	C	0.323347	0.752842	0.294053
	C4058	C	0.308233	0.752326	0.367313
	C4059	C	0.317123	0.690212	0.354007
	C4060	C	0.317234	0.814229	0.353984
	C4061	C	0.315003	0.752259	0.358320
	C4062	C	0.286426	0.462292	0.377777
	C4063	C	0.295565	0.462403	0.254734
	C4064	C	0.275234	0.462445	0.379863
	C4065	C	0.286389	0.543410	0.377783
	C4066	C	0.275220	0.543276	0.379871
	C4067	C	0.295543	0.542969	0.254756
	C4068	C	0.308289	0.252813	0.367346
	C4069	C	0.317437	0.190858	0.353994
	C4070	C	0.316977	0.314774	0.353999
	C4071	C	0.315062	0.252789	0.358333
	C4072	C	0.301811	0.043114	0.254335
	C4073	C	0.320285	0.251731	0.266877
	C4074	C	0.274540	0.254083	0.266249
	C4075	C	0.262353	0.252939	0.365900
	C4076	C	0.323198	0.190410	0.289571
	C4077	C	0.323889	0.314720	0.289482
	C4078	C	0.322932	0.251917	0.276319
	C4079	C	0.269053	0.254084	0.275423
	C4080	C	0.260456	0.752610	0.356428
	C4081	C	0.260448	0.814754	0.351986
	C4082	C	0.260423	0.690389	0.351959
	C4083	C	0.260487	0.252941	0.356448
	C4084	C	0.260460	0.315098	0.351985
	C4085	C	0.260623	0.190881	0.351967
	C4086	C	0.267391	0.191932	0.279806
	C4087	C	0.322804	0.190025	0.280833
	C4088	C	0.323509	0.314274	0.280745
	C4089	C	0.267727	0.316212	0.279839
	C4090	C	0.323584	0.252795	0.293982
	C4091	C	0.280431	0.043285	0.378122
	C4092	C	0.293138	0.043016	0.253712
	C4093	C	0.301827	0.962060	0.254352
	C4094	C	0.280479	0.962545	0.378125
	C4095	C	0.293138	0.962283	0.253715
	N4096	N	0.235129	0.070158	0.315439
	N4097	N	0.235143	0.935493	0.315443
	N4098	N	0.234893	0.435524	0.315503
	N4099	N	0.234918	0.570103	0.315479
	N4100	N	0.282425	0.435547	0.380091
	N4101	N	0.282371	0.570117	0.380094
	N4102	N	0.282394	0.070085	0.380080
	N4103	N	0.282408	0.935477	0.380083
	O4104	O	0.381894	0.694516	0.421948
	O4105	O	0.382083	0.810925	0.421869
	O4106	O	0.245306	0.694262	0.451318
	O4107	O	0.245299	0.810423	0.451339
	O4108	O	0.245543	0.195028	0.451249
	O4109	O	0.245336	0.311136	0.451314
	O4110	O	0.242711	0.694081	0.433235
	O4111	O	0.242717	0.810905	0.433240
	O4112	O	0.242857	0.194249	0.433279
	O4113	O	0.242799	0.311042	0.433280
	O4114	O	0.384853	0.694778	0.439963
	O4115	O	0.384899	0.811791	0.439986
	O4116	O	0.384690	0.194165	0.439953
	O4117	O	0.384758	0.310719	0.439983
	O4118	O	0.382058	0.194298	0.421841
	O4119	O	0.382090	0.310639	0.421868
	O4120	O	0.307526	0.694346	0.388784
	O4121	O	0.265949	0.694542	0.390754
	O4122	O	0.361345	0.694806	0.482471
	O4123	O	0.361168	0.811445	0.482421
	O4124	O	0.319854	0.694295	0.484424
	O4125	O	0.319807	0.810568	0.484430
	O4126	O	0.266109	0.811100	0.390776
	O4127	O	0.307634	0.810685	0.388753
	O4128	O	0.307669	0.194466	0.388725
	O4129	O	0.266012	0.194252	0.390791
	O4130	O	0.361214	0.193771	0.482459
	O4131	O	0.361458	0.310223	0.482476
	O4132	O	0.319710	0.195115	0.484414
	O4133	O	0.319786	0.311312	0.484397
	O4134	O	0.266353	0.310737	0.390821
	O4135	O	0.307557	0.310706	0.388789
	H4136	H	0.269508	0.644289	0.461848
	H4137	H	0.269478	0.860676	0.461868
	H4138	H	0.269428	0.145139	0.461848
	H4139	H	0.269562	0.360949	0.461792
	H4140	H	0.253308	0.862199	0.419963
	H4141	H	0.253130	0.642691	0.419913
	H4142	H	0.253275	0.362057	0.420000
	H4143	H	0.252854	0.143202	0.419972
	H4144	H	0.402146	0.064277	0.429905
	H4145	H	0.402856	0.064342	0.431614
	H4146	H	0.402997	0.940629	0.431596
	H4147	H	0.402265	0.941216	0.429920
	H4148	H	0.406646	0.064231	0.428568
	H4149	H	0.406714	0.941391	0.428477
	H4150	H	0.219216	0.064288	0.446891
	H4151	H	0.219180	0.940433	0.446879
	H4152	H	0.227690	0.063839	0.445842
	H4153	H	0.227638	0.940809	0.445791
	H4154	H	0.230214	0.064639	0.441160
	H4155	H	0.230205	0.941092	0.441129
	H4156	H	0.217328	0.441033	0.439290
	H4157	H	0.211848	0.440236	0.441287
	H4158	H	0.227238	0.440675	0.440483
	H4159	H	0.408898	0.440937	0.423184
	H4160	H	0.425158	0.441140	0.428919
	H4161	H	0.422304	0.441382	0.434998
	H4162	H	0.211811	0.564265	0.441293
	H4163	H	0.217183	0.563644	0.439236
	H4164	H	0.422197	0.564836	0.434965
	H4165	H	0.425137	0.564623	0.428893
	H4166	H	0.408731	0.564594	0.423198
	H4167	H	0.227408	0.564026	0.440474
	H4168	H	0.374326	0.643636	0.453243
	H4169	H	0.374251	0.862792	0.453242
	H4170	H	0.374103	0.142923	0.453251
	H4171	H	0.375004	0.361936	0.453368
	H4172	H	0.260101	0.643248	0.404493
	H4173	H	0.331583	0.643951	0.399370
	H4174	H	0.331720	0.861168	0.399280
	H4175	H	0.260250	0.862119	0.404553
	H4176	H	0.357905	0.644206	0.411384
	H4177	H	0.358039	0.861421	0.411305
	H4178	H	0.367376	0.643573	0.468684
	H4179	H	0.367355	0.862623	0.468668
	H4180	H	0.291644	0.440943	0.378018
	H4181	H	0.351113	0.441015	0.492523
	H4182	H	0.290921	0.441675	0.382818
	H4183	H	0.282749	0.441303	0.384365
	H4184	H	0.340555	0.440882	0.491256
	H4185	H	0.345510	0.441055	0.490558
	H4186	H	0.351044	0.564628	0.492487
	H4187	H	0.291617	0.564573	0.377971
	H4188	H	0.345495	0.563830	0.490533
	H4189	H	0.340546	0.564171	0.491275
	H4190	H	0.282771	0.564755	0.384347
	H4191	H	0.290794	0.564032	0.382833
	H4192	H	0.367117	0.142650	0.468655
	H4193	H	0.368004	0.361709	0.468786
	H4194	H	0.289134	0.064764	0.381896
	H4195	H	0.290096	0.064628	0.379234
	H4196	H	0.280674	0.064651	0.383124
	H4197	H	0.295787	0.860590	0.473856
	H4198	H	0.295880	0.644437	0.473838
	H4199	H	0.295873	0.361063	0.473806
	H4200	H	0.295684	0.145243	0.473885
	H4201	H	0.259851	0.143091	0.404575
	H4202	H	0.331766	0.144372	0.399283
	H4203	H	0.331422	0.360948	0.399387
	H4204	H	0.260303	0.362071	0.404587
	H4205	H	0.358127	0.144379	0.411272
	H4206	H	0.357746	0.360991	0.411401
	H4207	H	0.357441	0.064372	0.492543
	H4208	H	0.351772	0.063994	0.488926
	H4209	H	0.337116	0.064308	0.488985
	H4210	H	0.290143	0.941203	0.379257
	H4211	H	0.289213	0.941107	0.381914
	H4212	H	0.280637	0.940981	0.383142
	H4213	H	0.357572	0.941373	0.492557
	H4214	H	0.351841	0.940733	0.488902
	H4215	H	0.337107	0.940463	0.488973
	Zn4216	Zn	0.220419	0.679814	0.442652
	Zn4217	Zn	0.220498	0.825109	0.442669
	Zn4218	Zn	0.220606	0.179969	0.442664
	Zn4219	Zn	0.220436	0.324837	0.442655
	Zn4220	Zn	0.344774	0.679960	0.493058
	Zn4221	Zn	0.344702	0.825195	0.493099
	Zn4222	Zn	0.344519	0.179864	0.493102
	Zn4223	Zn	0.344738	0.325206	0.493069
	C4224	C	0.375594	0.752720	0.419219
	C4225	C	0.251739	0.752323	0.454007
	C4226	C	0.267883	0.752499	0.461129
	C4227	C	0.275344	0.691414	0.464524
	C4228	C	0.275320	0.813626	0.464526
	C4229	C	0.251815	0.253082	0.453979
	C4230	C	0.267947	0.253040	0.461094
	C4231	C	0.275335	0.191955	0.464505
	C4232	C	0.275397	0.314113	0.464481
	C4233	C	0.246056	0.752517	0.429881
	C4234	C	0.252789	0.752447	0.420870
	C4235	C	0.254940	0.814572	0.416539
	C4236	C	0.254853	0.690459	0.416512
	C4237	C	0.246124	0.252647	0.429919
	C4238	C	0.252760	0.252588	0.420888
	C4239	C	0.254928	0.314599	0.416564
	C4240	C	0.254671	0.190613	0.416552
	C4241	C	0.403807	0.043128	0.430684
	C4242	C	0.403829	0.962306	0.430693
	C4243	C	0.222588	0.042822	0.445389
	C4244	C	0.222569	0.962068	0.445396
	C4245	C	0.225173	0.042986	0.440657
	C4246	C	0.225078	0.962241	0.440661
	C4247	C	0.216020	0.461850	0.440899
	C4248	C	0.402961	0.462509	0.425835
	C4249	C	0.419405	0.462541	0.431595
	C4250	C	0.215975	0.542648	0.440895
	C4251	C	0.419335	0.543461	0.431575
	C4252	C	0.402929	0.543194	0.425864
	C4253	C	0.381549	0.753239	0.443321
	C4254	C	0.381412	0.252396	0.443337
	C4255	C	0.374804	0.753107	0.452333
	C4256	C	0.372691	0.691087	0.456669
	C4257	C	0.372677	0.815153	0.456665
	C4258	C	0.374844	0.252441	0.452361
	C4259	C	0.372552	0.190468	0.456680
	C4260	C	0.373068	0.314363	0.456750
	C4261	C	0.375612	0.252538	0.419190
	C4262	C	0.313978	0.752512	0.391464
	C4263	C	0.264230	0.752794	0.394335
	C4264	C	0.313426	0.752424	0.481742
	C4265	C	0.352040	0.691307	0.408703
	C4266	C	0.352108	0.814185	0.408661
	C4267	C	0.330080	0.752627	0.398601
	C4268	C	0.260166	0.752741	0.403598
	C4269	C	0.258606	0.690613	0.407951
	C4270	C	0.337461	0.691206	0.402026
	C4271	C	0.337543	0.814089	0.401980
	C4272	C	0.258706	0.814688	0.407982
	C4273	C	0.359474	0.752812	0.412097
	C4274	C	0.363075	0.753074	0.478871
	C4275	C	0.368885	0.691021	0.465229
	C4276	C	0.368847	0.815111	0.465217
	C4277	C	0.367318	0.753015	0.469603
	C4278	C	0.349145	0.462083	0.493408
	C4279	C	0.285620	0.462609	0.382685
	C4280	C	0.343616	0.462265	0.491471
	C4281	C	0.349132	0.543310	0.493406
	C4282	C	0.343578	0.542810	0.491479
	C4283	C	0.285590	0.543039	0.382691
	C4284	C	0.363229	0.251991	0.478894
	C4285	C	0.368832	0.190337	0.465239
	C4286	C	0.369344	0.314220	0.465309
	C4287	C	0.367450	0.252177	0.469647
	C4288	C	0.287683	0.043288	0.380456
	C4289	C	0.313989	0.252534	0.391457
	C4290	C	0.264312	0.252490	0.394370
	C4291	C	0.313350	0.253206	0.481720
	C4292	C	0.352195	0.191387	0.408624
	C4293	C	0.351992	0.313921	0.408694
	C4294	C	0.330114	0.252591	0.398585
	C4295	C	0.260098	0.252560	0.403624
	C4296	C	0.297298	0.752477	0.474619
	C4297	C	0.289915	0.813695	0.471199
	C4298	C	0.289945	0.691384	0.471194
	C4299	C	0.297294	0.253052	0.474578
	C4300	C	0.289991	0.314163	0.471151
	C4301	C	0.289887	0.191985	0.471181
	C4302	C	0.258385	0.190588	0.407994
	C4303	C	0.337593	0.191369	0.401961
	C4304	C	0.337401	0.313881	0.402032
	C4305	C	0.258638	0.314562	0.408001
	C4306	C	0.359479	0.252631	0.412084
	C4307	C	0.352110	0.042847	0.491351
	C4308	C	0.279124	0.043270	0.381732
	C4309	C	0.287714	0.962301	0.380454
	C4310	C	0.352152	0.962180	0.491354
	C4311	C	0.279117	0.962450	0.381732
	N4312	N	0.220418	0.069701	0.442693
	N4313	N	0.220335	0.935167	0.442684
	N4314	N	0.220195	0.435208	0.442645
	N4315	N	0.220156	0.569806	0.442635
	N4316	N	0.345107	0.435281	0.493049
	N4317	N	0.345039	0.569782	0.493049
	N4318	N	0.344876	0.069831	0.493093
	N4319	N	0.344954	0.935326	0.493100
	O4320	O	0.372150	0.693669	0.547513
	O4321	O	0.371823	0.810433	0.547501
	O4322	O	0.301433	0.694182	0.566181
	O4323	O	0.301392	0.810993	0.566247
	O4324	O	0.301346	0.194493	0.566229
	O4325	O	0.301513	0.311433	0.566156
	O4326	O	0.299022	0.694314	0.544997
	O4327	O	0.298747	0.810870	0.544981
	O4328	O	0.298798	0.194274	0.544929
	O4329	O	0.298899	0.310974	0.544933
	O4330	O	0.372392	0.693803	0.567745
	O4331	O	0.371732	0.810737	0.567640
	O4332	O	0.371730	0.195264	0.567602
	O4333	O	0.372303	0.311913	0.567737
	O4334	O	0.371641	0.195542	0.547532
	O4335	O	0.372182	0.312231	0.547468
	O4336	O	0.363584	0.694160	0.503660
	O4337	O	0.322529	0.693787	0.502515
	O4338	O	0.351163	0.695294	0.610581
	O4339	O	0.350275	0.812056	0.610454
	O4340	O	0.309917	0.693307	0.609979
	O4341	O	0.309127	0.810111	0.610069
	O4342	O	0.322454	0.810703	0.502497
	O4343	O	0.363544	0.811131	0.503716
	O4344	O	0.363578	0.193714	0.503684
	O4345	O	0.322444	0.194281	0.502508
	O4346	O	0.350502	0.193051	0.610463
	O4347	O	0.351269	0.309735	0.610581
	O4348	O	0.309229	0.195322	0.610022
	O4349	O	0.309968	0.311957	0.609973
	O4350	O	0.322662	0.311200	0.502493
	O4351	O	0.363783	0.310567	0.503609
	H4352	H	0.304652	0.642447	0.580235
	H4353	H	0.303511	0.862009	0.580360
	H4354	H	0.303678	0.143642	0.580290
	H4355	H	0.304782	0.363166	0.580242
	H4356	H	0.304735	0.861852	0.531163
	H4357	H	0.305656	0.642858	0.531278
	H4358	H	0.305247	0.362526	0.531195
	H4359	H	0.304576	0.143011	0.531141
	H4360	H	0.398903	0.064610	0.559726
	H4361	H	0.400227	0.064823	0.557039
	H4362	H	0.400317	0.941230	0.557078
	H4363	H	0.398890	0.941036	0.559731
	H4364	H	0.389975	0.064272	0.560849
	H4365	H	0.389878	0.941586	0.560850
	H4366	H	0.277471	0.064395	0.555060
	H4367	H	0.277402	0.940721	0.555120
	H4368	H	0.278276	0.064098	0.556827
	H4369	H	0.278371	0.940525	0.556839
	H4370	H	0.284119	0.064310	0.557590
	H4371	H	0.284039	0.941054	0.557596
	H4372	H	0.279572	0.440899	0.553737
	H4373	H	0.277101	0.441313	0.555259
	H4374	H	0.285790	0.440630	0.553960
	H4375	H	0.390869	0.441255	0.558434
	H4376	H	0.390441	0.441005	0.557293
	H4377	H	0.392102	0.440969	0.556780
	H4378	H	0.277061	0.564079	0.555249
	H4379	H	0.279586	0.564596	0.553741
	H4380	H	0.392074	0.564442	0.556748
	H4381	H	0.390402	0.564520	0.557265
	H4382	H	0.390847	0.564608	0.558500
	H4383	H	0.285837	0.564213	0.553984
	H4384	H	0.365640	0.642861	0.581499
	H4385	H	0.363973	0.862477	0.581278
	H4386	H	0.363858	0.143113	0.581234
	H4387	H	0.365596	0.362872	0.581574
	H4388	H	0.312666	0.642459	0.515879
	H4389	H	0.366787	0.642271	0.517734
	H4390	H	0.366224	0.861957	0.517775
	H4391	H	0.311719	0.861598	0.515728
	H4392	H	0.367790	0.641802	0.533461
	H4393	H	0.367218	0.861874	0.533515
	H4394	H	0.359980	0.643495	0.597028
	H4395	H	0.358282	0.863204	0.596775
	H4396	H	0.350102	0.440715	0.494561
	H4397	H	0.336010	0.440888	0.619000
	H4398	H	0.343244	0.441100	0.495456
	H4399	H	0.339195	0.440907	0.494020
	H4400	H	0.324790	0.440902	0.619001
	H4401	H	0.329192	0.441258	0.617763
	H4402	H	0.335875	0.564229	0.619002
	H4403	H	0.350097	0.564735	0.494536
	H4404	H	0.329226	0.564135	0.617771
	H4405	H	0.324823	0.564332	0.618981
	H4406	H	0.339225	0.564410	0.494007
	H4407	H	0.343196	0.564150	0.495461
	H4408	H	0.358214	0.142252	0.596770
	H4409	H	0.360132	0.361833	0.597045
	H4410	H	0.339842	0.064377	0.497659
	H4411	H	0.350509	0.064281	0.497654
	H4412	H	0.332064	0.064175	0.492729
	H4413	H	0.304440	0.861604	0.596081
	H4414	H	0.305526	0.641933	0.595980
	H4415	H	0.305811	0.363269	0.595993
	H4416	H	0.304658	0.143730	0.595984
	H4417	H	0.311671	0.143211	0.515738
	H4418	H	0.366077	0.142936	0.517816
	H4419	H	0.367356	0.362545	0.517652
	H4420	H	0.312339	0.362618	0.515789
	H4421	H	0.366789	0.143670	0.533530
	H4422	H	0.368178	0.363268	0.533396
	H4423	H	0.312886	0.064623	0.624659
	H4424	H	0.327634	0.064535	0.628246
	H4425	H	0.348016	0.064189	0.623908
	H4426	H	0.350634	0.940892	0.497636
	H4427	H	0.339872	0.941076	0.497654
	H4428	H	0.332142	0.940584	0.492726
	H4429	H	0.312876	0.940795	0.624681
	H4430	H	0.327600	0.940919	0.628260
	H4431	H	0.348091	0.941108	0.623922
	Zn4432	Zn	0.282359	0.679782	0.555573
	Zn4433	Zn	0.282372	0.825209	0.555629
	Zn4434	Zn	0.282402	0.179878	0.555600
	Zn4435	Zn	0.282341	0.325200	0.555573
	Zn4436	Zn	0.330237	0.680265	0.620249
	Zn4437	Zn	0.329628	0.825284	0.620247
	Zn4438	Zn	0.329560	0.180178	0.620247
	Zn4439	Zn	0.330308	0.325193	0.620211
	C4440	C	0.370162	0.751992	0.543892
	C4441	C	0.302700	0.752425	0.569866
	C4442	C	0.304415	0.752221	0.579343
	C4443	C	0.304693	0.689940	0.583766
	C4444	C	0.304107	0.814181	0.583843
	C4445	C	0.302727	0.253151	0.569838
	C4446	C	0.304541	0.253509	0.579294
	C4447	C	0.304273	0.191444	0.583760
	C4448	C	0.304845	0.315600	0.583751
	C4449	C	0.300702	0.752625	0.541411
	C4450	C	0.304920	0.752526	0.532147
	C4451	C	0.306368	0.814364	0.527740
	C4452	C	0.306865	0.690424	0.527814
	C4453	C	0.300677	0.252626	0.541370
	C4454	C	0.304858	0.252777	0.532124
	C4455	C	0.306685	0.314934	0.527763
	C4456	C	0.306286	0.190665	0.527737
	C4457	C	0.397643	0.043456	0.558214
	C4458	C	0.397657	0.962361	0.558220
	C4459	C	0.279157	0.043099	0.555859
	C4460	C	0.279154	0.962175	0.555879
	C4461	C	0.284916	0.043018	0.556656
	C4462	C	0.284926	0.962144	0.556665
	C4463	C	0.279450	0.462123	0.554779
	C4464	C	0.392091	0.462624	0.558375
	C4465	C	0.391654	0.462326	0.557211
	C4466	C	0.279455	0.543022	0.554778
	C4467	C	0.391630	0.543214	0.557205
	C4468	C	0.392107	0.543273	0.558399
	C4469	C	0.369566	0.752306	0.571191
	C4470	C	0.369518	0.253428	0.571197
	C4471	C	0.364809	0.752562	0.580433
	C4472	C	0.363919	0.690610	0.584898
	C4473	C	0.362990	0.814934	0.584766
	C4474	C	0.364799	0.252923	0.580417
	C4475	C	0.362937	0.190619	0.584749
	C4476	C	0.363935	0.314740	0.584925
	C4477	C	0.370093	0.253848	0.543874
	C4478	C	0.364904	0.752537	0.507338
	C4479	C	0.319180	0.752184	0.505865
	C4480	C	0.307665	0.751791	0.606420
	C4481	C	0.367404	0.689764	0.529994
	C4482	C	0.367033	0.814184	0.530020
	C4483	C	0.366860	0.752305	0.516811
	C4484	C	0.312493	0.752089	0.514875
	C4485	C	0.310707	0.690178	0.519261
	C4486	C	0.367026	0.689957	0.521256
	C4487	C	0.366689	0.814323	0.521285
	C4488	C	0.310208	0.814169	0.519183
	C4489	C	0.367485	0.751992	0.534465
	C4490	C	0.353495	0.753678	0.607037
	C4491	C	0.360871	0.691033	0.593519
	C4492	C	0.359917	0.815346	0.593382
	C4493	C	0.358808	0.753389	0.597843
	C4494	C	0.334713	0.462177	0.620131
	C4495	C	0.342249	0.462275	0.494304
	C4496	C	0.327878	0.462315	0.618874
	C4497	C	0.334681	0.543238	0.620140
	C4498	C	0.327877	0.543033	0.618884
	C4499	C	0.342227	0.543013	0.494319
	C4500	C	0.353640	0.251399	0.607032
	C4501	C	0.359973	0.190047	0.593375
	C4502	C	0.360964	0.314228	0.593539
	C4503	C	0.358947	0.251831	0.597849
	C4504	C	0.345162	0.043151	0.496453
	C4505	C	0.365066	0.252275	0.507289
	C4506	C	0.319175	0.252813	0.505855
	C4507	C	0.307807	0.253638	0.606370
	C4508	C	0.366862	0.191171	0.530007
	C4509	C	0.367615	0.315460	0.529923
	C4510	C	0.366888	0.252702	0.516765
	C4511	C	0.312397	0.252882	0.514866
	C4512	C	0.304934	0.751793	0.596989
	C4513	C	0.304378	0.814010	0.592571
	C4514	C	0.304993	0.689803	0.592499
	C4515	C	0.305161	0.253553	0.596937
	C4516	C	0.305233	0.315666	0.592483
	C4517	C	0.304623	0.191438	0.592486
	C4518	C	0.310088	0.190743	0.519181
	C4519	C	0.366520	0.190844	0.521272
	C4520	C	0.367279	0.315034	0.521184
	C4521	C	0.310509	0.315021	0.519211
	C4522	C	0.367439	0.253487	0.534426
	C4523	C	0.322699	0.043211	0.624823
	C4524	C	0.337340	0.043000	0.491440
	C4525	C	0.345196	0.962346	0.496461
	C4526	C	0.322705	0.962239	0.624832
	C4527	C	0.337375	0.961923	0.491437
	N4528	N	0.282595	0.069758	0.555609
	N4529	N	0.282591	0.935231	0.555644
	N4530	N	0.282513	0.435234	0.555616
	N4531	N	0.282516	0.569730	0.555629
	N4532	N	0.330413	0.435473	0.620291
	N4533	N	0.330390	0.570028	0.620296
	N4534	N	0.329620	0.069911	0.620279
	N4535	N	0.329687	0.935419	0.620274
	O4536	O	0.366598	0.694950	0.673950
	O4537	O	0.366727	0.811598	0.673954
	O4538	O	0.287566	0.693075	0.692935
	O4539	O	0.288163	0.809623	0.692853
	O4540	O	0.287976	0.194879	0.692898
	O4541	O	0.287703	0.311536	0.692908
	O4542	O	0.288096	0.693315	0.673003
	O4543	O	0.288196	0.809889	0.672978
	O4544	O	0.288359	0.194788	0.673008
	O4545	O	0.288072	0.311562	0.673006
	O4546	O	0.366322	0.694698	0.694005
	O4547	O	0.366410	0.811577	0.694011
	O4548	O	0.366436	0.194383	0.694031
	O4549	O	0.366301	0.311023	0.694019
	O4550	O	0.366704	0.193478	0.674008
	O4551	O	0.366739	0.310176	0.673928
	O4552	O	0.350825	0.695716	0.630381
	O4553	O	0.309834	0.692990	0.630138
	O4554	O	0.344985	0.694154	0.736852
	O4555	O	0.344995	0.810922	0.736867
	O4556	O	0.304027	0.693887	0.736418
	O4557	O	0.304245	0.810845	0.736341
	O4558	O	0.309451	0.809818	0.630131
	O4559	O	0.350413	0.812545	0.630442
	O4560	O	0.350228	0.192864	0.630484
	O4561	O	0.309336	0.195448	0.630130
	O4562	O	0.345145	0.194333	0.736918
	O4563	O	0.344829	0.311164	0.736843
	O4564	O	0.304194	0.194019	0.736406
	O4565	O	0.303902	0.310812	0.736462
	O4566	O	0.309841	0.312290	0.630132
	O4567	O	0.350695	0.309796	0.630480
	H4568	H	0.293435	0.641774	0.706888
	H4569	H	0.294940	0.861445	0.706752
	H4570	H	0.294768	0.143317	0.706765
	H4571	H	0.293677	0.362998	0.706892
	H4572	H	0.296182	0.861284	0.659290
	H4573	H	0.296657	0.641632	0.659353
	H4574	H	0.296877	0.363499	0.659438
	H4575	H	0.296268	0.143441	0.659285
	H4576	H	0.374900	0.064278	0.685130
	H4577	H	0.381178	0.064555	0.688555
	H4578	H	0.381137	0.941136	0.688536
	H4579	H	0.374992	0.940640	0.685100
	H4580	H	0.380798	0.064342	0.679948
	H4581	H	0.380767	0.940496	0.679938
	H4582	H	0.277799	0.064392	0.682851
	H4583	H	0.277751	0.941202	0.682871
	H4584	H	0.274187	0.064076	0.679589
	H4585	H	0.274207	0.940970	0.679674
	H4586	H	0.262056	0.063843	0.679052
	H4587	H	0.262214	0.940622	0.679077
	H4588	H	0.266743	0.440827	0.684483
	H4589	H	0.270225	0.440721	0.683921
	H4590	H	0.262599	0.440958	0.683191
	H4591	H	0.388544	0.440898	0.683352
	H4592	H	0.389587	0.440913	0.684545
	H4593	H	0.387944	0.440704	0.685177
	H4594	H	0.270256	0.564276	0.683886
	H4595	H	0.266771	0.564377	0.684470
	H4596	H	0.387992	0.563912	0.685216
	H4597	H	0.389422	0.564145	0.684561
	H4598	H	0.388581	0.564545	0.683370
	H4599	H	0.262615	0.564197	0.683177
	H4600	H	0.358414	0.643426	0.707667
	H4601	H	0.358301	0.862777	0.707670
	H4602	H	0.358189	0.142666	0.707699
	H4603	H	0.358815	0.362533	0.707693
	H4604	H	0.302433	0.641737	0.643848
	H4605	H	0.357355	0.644487	0.644278
	H4606	H	0.356377	0.863714	0.644348
	H4607	H	0.301923	0.861107	0.643797
	H4608	H	0.361121	0.643761	0.659937
	H4609	H	0.360187	0.863549	0.660065
	H4610	H	0.352727	0.643319	0.723166
	H4611	H	0.352598	0.862753	0.723180
	H4612	H	0.336509	0.440856	0.621168
	H4613	H	0.321289	0.441255	0.752236
	H4614	H	0.330465	0.440959	0.622841
	H4615	H	0.325552	0.440802	0.621904
	H4616	H	0.337963	0.440722	0.745035
	H4617	H	0.336591	0.441146	0.749780
	H4618	H	0.321295	0.564375	0.752193
	H4619	H	0.336435	0.564616	0.621156
	H4620	H	0.336500	0.564368	0.749737
	H4621	H	0.337967	0.564175	0.745043
	H4622	H	0.325542	0.564302	0.621928
	H4623	H	0.330475	0.564353	0.622840
	H4624	H	0.352453	0.143060	0.723197
	H4625	H	0.353003	0.362622	0.723186
	H4626	H	0.328110	0.064474	0.612236
	H4627	H	0.313162	0.064350	0.615443
	H4628	H	0.348205	0.064412	0.617132
	H4629	H	0.298728	0.861716	0.722430
	H4630	H	0.297294	0.642381	0.722575
	H4631	H	0.297302	0.362271	0.722584
	H4632	H	0.298398	0.142918	0.722450
	H4633	H	0.302065	0.144075	0.643784
	H4634	H	0.356414	0.141184	0.644412
	H4635	H	0.357047	0.361086	0.644314
	H4636	H	0.302722	0.363882	0.643933
	H4637	H	0.360221	0.141428	0.660122
	H4638	H	0.360757	0.361442	0.660010
	H4639	H	0.314902	0.064495	0.745591
	H4640	H	0.316206	0.064143	0.748767
	H4641	H	0.326704	0.063700	0.750408
	H4642	H	0.313147	0.941161	0.615348
	H4643	H	0.328162	0.940914	0.612196
	H4644	H	0.348317	0.940681	0.617169
	H4645	H	0.314767	0.940948	0.745582
	H4646	H	0.316165	0.940801	0.748750
	H4647	H	0.326619	0.940378	0.750388
	Zn4648	Zn	0.267019	0.679693	0.682719
	Zn4649	Zn	0.267498	0.824912	0.682732
	Zn4650	Zn	0.267414	0.179894	0.682756
	Zn4651	Zn	0.266959	0.325101	0.682699
	Zn4652	Zn	0.324414	0.680040	0.746661
	Zn4653	Zn	0.324319	0.825284	0.746656
	Zn4654	Zn	0.324400	0.179865	0.746671
	Zn4655	Zn	0.324367	0.325347	0.746702
	C4656	C	0.364458	0.753353	0.670378
	C4657	C	0.290148	0.751399	0.696476
	C4658	C	0.294305	0.751513	0.705838
	C4659	C	0.294783	0.689541	0.710329
	C4660	C	0.295605	0.813747	0.710254
	C4661	C	0.290159	0.253273	0.696463
	C4662	C	0.294189	0.253194	0.705846
	C4663	C	0.295397	0.190945	0.710268
	C4664	C	0.294814	0.315152	0.710339
	C4665	C	0.290920	0.751499	0.669501
	C4666	C	0.296271	0.751481	0.660319
	C4667	C	0.297677	0.813495	0.655890
	C4668	C	0.297929	0.689426	0.655921
	C4669	C	0.291022	0.253248	0.669534
	C4670	C	0.296303	0.253476	0.660334
	C4671	C	0.298064	0.315809	0.655965
	C4672	C	0.297748	0.191370	0.655890
	C4673	C	0.380486	0.042937	0.686144
	C4674	C	0.380480	0.962264	0.686146
	C4675	C	0.273698	0.042761	0.681630
	C4676	C	0.273686	0.962089	0.681642
	C4677	C	0.261546	0.042669	0.681052
	C4678	C	0.261626	0.961861	0.681051
	C4679	C	0.268054	0.462043	0.683791
	C4680	C	0.387285	0.462159	0.683479
	C4681	C	0.388315	0.462193	0.684696
	C4682	C	0.268051	0.542943	0.683792
	C4683	C	0.388275	0.543006	0.684704
	C4684	C	0.387310	0.543075	0.683506
	C4685	C	0.363679	0.753157	0.697487
	C4686	C	0.363709	0.252680	0.697521
	C4687	C	0.358516	0.753174	0.706698
	C4688	C	0.357085	0.691104	0.711102
	C4689	C	0.357012	0.815168	0.711105
	C4690	C	0.358626	0.252619	0.706727
	C4691	C	0.356969	0.190499	0.711135
	C4692	C	0.357294	0.314802	0.711129
	C4693	C	0.364481	0.251668	0.670390
	C4694	C	0.352902	0.754152	0.633988
	C4695	C	0.307157	0.751338	0.633645
	C4696	C	0.301956	0.752237	0.732814
	C4697	C	0.359934	0.691763	0.656520
	C4698	C	0.359428	0.815878	0.656576
	C4699	C	0.356839	0.754156	0.643385
	C4700	C	0.302335	0.751409	0.642882
	C4701	C	0.301017	0.689381	0.647302
	C4702	C	0.358032	0.691984	0.647803
	C4703	C	0.357492	0.816064	0.647858
	C4704	C	0.300737	0.813468	0.647273
	C4705	C	0.360566	0.753714	0.661009
	C4706	C	0.347529	0.752616	0.733348
	C4707	C	0.354009	0.690973	0.719718
	C4708	C	0.353947	0.815128	0.719721
	C4709	C	0.352526	0.752966	0.724123
	C4710	C	0.318547	0.462122	0.749689
	C4711	C	0.328646	0.462275	0.621835
	C4712	C	0.333897	0.462182	0.747226
	C4713	C	0.318531	0.543135	0.749667
	C4714	C	0.333848	0.543047	0.747228
	C4715	C	0.328637	0.542991	0.621836
	C4716	C	0.347633	0.252703	0.733391
	C4717	C	0.353909	0.190606	0.719752
	C4718	C	0.354226	0.314799	0.719741
	C4719	C	0.352575	0.252728	0.724158
	C4720	C	0.322981	0.042962	0.615511
	C4721	C	0.352682	0.251231	0.634050
	C4722	C	0.307162	0.254007	0.633641
	C4723	C	0.301807	0.252473	0.732853
	C4724	C	0.359471	0.189133	0.656610
	C4725	C	0.359798	0.313525	0.656548
	C4726	C	0.356702	0.251118	0.643434
	C4727	C	0.302415	0.254077	0.642898
	C4728	C	0.298107	0.752023	0.723443
	C4729	C	0.297563	0.814031	0.718966
	C4730	C	0.296762	0.689816	0.719043
	C4731	C	0.297988	0.252542	0.723457
	C4732	C	0.296754	0.314833	0.719056
	C4733	C	0.297332	0.190616	0.718978
	C4734	C	0.300791	0.191662	0.647266
	C4735	C	0.357447	0.188984	0.647900
	C4736	C	0.357804	0.313391	0.647832
	C4737	C	0.301151	0.316123	0.647342
	C4738	C	0.360541	0.251401	0.661026
	C4739	C	0.317835	0.042904	0.747046
	C4740	C	0.343221	0.043166	0.620453
	C4741	C	0.323029	0.962233	0.615499
	C4742	C	0.317780	0.962081	0.747031
	C4743	C	0.343301	0.962375	0.620461
	N4744	N	0.267301	0.069720	0.682704
	N4745	N	0.267343	0.935173	0.682717
	N4746	N	0.266864	0.435056	0.682697
	N4747	N	0.266886	0.569526	0.682699
	N4748	N	0.324343	0.435249	0.746681
	N4749	N	0.324328	0.569772	0.746662
	N4750	N	0.324247	0.069845	0.746673
	N4751	N	0.324149	0.935360	0.746646
	O4752	O	0.359027	0.694783	0.800586
	O4753	O	0.359123	0.811685	0.800533
	O4754	O	0.282278	0.693228	0.819540
	O4755	O	0.282558	0.809981	0.819514
	O4756	O	0.282676	0.195237	0.819443
	O4757	O	0.282249	0.312082	0.819506
	O4758	O	0.282651	0.693232	0.799320
	O4759	O	0.283069	0.809998	0.799389
	O4760	O	0.282974	0.194953	0.799364
	O4761	O	0.282505	0.311793	0.799285
	O4762	O	0.358529	0.694631	0.820682
	O4763	O	0.358802	0.811399	0.820736
	O4764	O	0.358796	0.193514	0.820690
	O4765	O	0.358457	0.310263	0.820668
	O4766	O	0.359075	0.193560	0.800548
	O4767	O	0.358951	0.310450	0.800561
	O4768	O	0.344737	0.694118	0.756964
	O4769	O	0.303591	0.694040	0.756444
	O4770	O	0.337634	0.693854	0.863591
	O4771	O	0.337885	0.810735	0.863614
	O4772	O	0.296440	0.694163	0.863191
	O4773	O	0.296775	0.810939	0.863033
	O4774	O	0.303728	0.810785	0.756466
	O4775	O	0.344749	0.810813	0.756923
	O4776	O	0.344724	0.194171	0.756941
	O4777	O	0.303478	0.193795	0.756425
	O4778	O	0.337597	0.193869	0.863587
	O4779	O	0.337654	0.310747	0.863596
	O4780	O	0.296656	0.194454	0.863059
	O4781	O	0.296532	0.311141	0.863109
	O4782	O	0.303545	0.310521	0.756421
	O4783	O	0.344820	0.310884	0.756935
	H4784	H	0.287651	0.641817	0.833485
	H4785	H	0.288089	0.861664	0.833427
	H4786	H	0.288525	0.143702	0.833354
	H4787	H	0.287696	0.363135	0.833457
	H4788	H	0.290776	0.861258	0.785728
	H4789	H	0.290024	0.642050	0.785633
	H4790	H	0.290035	0.362698	0.785596
	H4791	H	0.290742	0.143054	0.785738
	H4792	H	0.382766	0.064628	0.817267
	H4793	H	0.393877	0.064530	0.814040
	H4794	H	0.393818	0.941203	0.814085
	H4795	H	0.382696	0.941527	0.817289
	H4796	H	0.365233	0.064378	0.814149
	H4797	H	0.365171	0.941049	0.814202
	H4798	H	0.264728	0.064217	0.808617
	H4799	H	0.264875	0.940776	0.808584
	H4800	H	0.262701	0.064657	0.808104
	H4801	H	0.262761	0.941342	0.808127
	H4802	H	0.259923	0.064403	0.808750
	H4803	H	0.260000	0.941157	0.808742
	H4804	H	0.278421	0.441121	0.810352
	H4805	H	0.274601	0.440986	0.805054
	H4806	H	0.265238	0.441019	0.815572
	H4807	H	0.372497	0.441033	0.817573
	H4808	H	0.360776	0.440748	0.810527
	H4809	H	0.367585	0.440849	0.805157
	H4810	H	0.274679	0.564035	0.805082
	H4811	H	0.278308	0.564707	0.810337
	H4812	H	0.367482	0.564125	0.805196
	H4813	H	0.360840	0.564511	0.810580
	H4814	H	0.372529	0.564361	0.817580
	H4815	H	0.265317	0.565066	0.815549
	H4816	H	0.350953	0.642699	0.834395
	H4817	H	0.351618	0.862596	0.834490
	H4818	H	0.351135	0.142091	0.834410
	H4819	H	0.351011	0.361621	0.834343
	H4820	H	0.295462	0.642151	0.770111
	H4821	H	0.350114	0.643098	0.770954
	H4822	H	0.350531	0.862808	0.770827
	H4823	H	0.296235	0.861823	0.770193
	H4824	H	0.353238	0.643460	0.786643
	H4825	H	0.353734	0.863005	0.786549
	H4826	H	0.345352	0.642353	0.849899
	H4827	H	0.345983	0.862115	0.850006
	H4828	H	0.311683	0.440812	0.749273
	H4829	H	0.322234	0.441233	0.869439
	H4830	H	0.313628	0.441002	0.742797
	H4831	H	0.324695	0.440978	0.740997
	H4832	H	0.305430	0.440870	0.873438
	H4833	H	0.309053	0.441189	0.869985
	H4834	H	0.322186	0.564574	0.869475
	H4835	H	0.311598	0.564488	0.749214
	H4836	H	0.309109	0.564293	0.869992
	H4837	H	0.305374	0.564758	0.873433
	H4838	H	0.324772	0.564353	0.741018
	H4839	H	0.313600	0.564358	0.742787
	H4840	H	0.345493	0.142333	0.849929
	H4841	H	0.345433	0.362145	0.849837
	H4842	H	0.331144	0.064019	0.744050
	H4843	H	0.323530	0.063925	0.742834
	H4844	H	0.333055	0.064059	0.748431
	H4845	H	0.291219	0.861708	0.849096
	H4846	H	0.290834	0.642222	0.849205
	H4847	H	0.290723	0.362953	0.849150
	H4848	H	0.291552	0.143259	0.849035
	H4849	H	0.296204	0.142389	0.770201
	H4850	H	0.350548	0.142426	0.770906
	H4851	H	0.350260	0.362346	0.770885
	H4852	H	0.295539	0.362250	0.770089
	H4853	H	0.353587	0.142487	0.786605
	H4854	H	0.353279	0.362136	0.786599
	H4855	H	0.305232	0.064539	0.869840
	H4856	H	0.302789	0.064324	0.874534
	H4857	H	0.315184	0.064457	0.879009
	H4858	H	0.323499	0.941123	0.742823
	H4859	H	0.331093	0.940777	0.744040
	H4860	H	0.332918	0.940304	0.748387
	H4861	H	0.305396	0.940829	0.869855
	H4862	H	0.302854	0.941262	0.874511
	H4863	H	0.315263	0.941262	0.879027
	Zn4864	Zn	0.262075	0.679990	0.809184
	Zn4865	Zn	0.262579	0.825405	0.809194
	Zn4866	Zn	0.262367	0.179908	0.809192
	Zn4867	Zn	0.262148	0.325522	0.809168
	Zn4868	Zn	0.316849	0.679828	0.873439
	Zn4869	Zn	0.316978	0.825526	0.873341
	Zn4870	Zn	0.316707	0.180089	0.873383
	Zn4871	Zn	0.316780	0.325597	0.873404
	C4872	C	0.357005	0.753154	0.796971
	C4873	C	0.284522	0.751600	0.823108
	C4874	C	0.288021	0.751746	0.832505
	C4875	C	0.288610	0.689592	0.836973
	C4876	C	0.288792	0.813944	0.836926
	C4877	C	0.284494	0.253613	0.823064
	C4878	C	0.288073	0.253405	0.832458
	C4879	C	0.289094	0.191214	0.836872
	C4880	C	0.288604	0.315488	0.836933
	C4881	C	0.285425	0.751649	0.795854
	C4882	C	0.290352	0.751677	0.786625
	C4883	C	0.291889	0.813814	0.782234
	C4884	C	0.291486	0.689704	0.782184
	C4885	C	0.285373	0.253328	0.795834
	C4886	C	0.290184	0.252931	0.786598
	C4887	C	0.291445	0.314885	0.782164
	C4888	C	0.291838	0.190614	0.782243
	C4889	C	0.385910	0.043198	0.814393
	C4890	C	0.385913	0.962519	0.814413
	C4891	C	0.263437	0.043165	0.808580
	C4892	C	0.263494	0.962204	0.808578
	C4893	C	0.260633	0.043193	0.809233
	C4894	C	0.260706	0.962263	0.809226
	C4895	C	0.272778	0.462535	0.808106
	C4896	C	0.379785	0.462301	0.815706
	C4897	C	0.368057	0.462313	0.808664
	C4898	C	0.272748	0.543167	0.808106
	C4899	C	0.368079	0.543139	0.808669
	C4900	C	0.379868	0.542887	0.815698
	C4901	C	0.356099	0.752911	0.824205
	C4902	C	0.356104	0.251818	0.824193
	C4903	C	0.351316	0.752572	0.833447
	C4904	C	0.349784	0.690420	0.837846
	C4905	C	0.350110	0.814634	0.837899
	C4906	C	0.351190	0.251788	0.833433
	C4907	C	0.349805	0.189742	0.837855
	C4908	C	0.349724	0.314047	0.837815
	C4909	C	0.356893	0.252063	0.796973
	C4910	C	0.346807	0.752552	0.760534
	C4911	C	0.301102	0.752379	0.759960
	C4912	C	0.294547	0.752288	0.859521
	C4913	C	0.352590	0.691122	0.783128
	C4914	C	0.352815	0.815282	0.783074
	C4915	C	0.350363	0.752872	0.769929
	C4916	C	0.296102	0.752122	0.769181
	C4917	C	0.294430	0.689890	0.773562
	C4918	C	0.351009	0.690929	0.774410
	C4919	C	0.351221	0.815180	0.774347
	C4920	C	0.294848	0.814009	0.773610
	C4921	C	0.353427	0.753228	0.787555
	C4922	C	0.340379	0.752257	0.860109
	C4923	C	0.346802	0.690182	0.846468
	C4924	C	0.347112	0.814545	0.846523
	C4925	C	0.345430	0.752217	0.850887
	C4926	C	0.322911	0.462213	0.871635
	C4927	C	0.320517	0.462317	0.743171
	C4928	C	0.309771	0.462329	0.872154
	C4929	C	0.322935	0.543186	0.871659
	C4930	C	0.309771	0.543168	0.872168
	C4931	C	0.320544	0.542915	0.743150
	C4932	C	0.340302	0.252328	0.860110
	C4933	C	0.346837	0.189984	0.846478
	C4934	C	0.346777	0.314250	0.846435
	C4935	C	0.345331	0.252173	0.850883
	C4936	C	0.326522	0.042869	0.744309
	C4937	C	0.346830	0.252510	0.760533
	C4938	C	0.300923	0.252192	0.759925
	C4939	C	0.294527	0.252898	0.859485
	C4940	C	0.352789	0.190186	0.783114
	C4941	C	0.352598	0.314455	0.783106
	C4942	C	0.350378	0.252425	0.769936
	C4943	C	0.296059	0.252313	0.769167
	C4944	C	0.291032	0.752042	0.850120
	C4945	C	0.290360	0.814005	0.845638
	C4946	C	0.290172	0.689805	0.845697
	C4947	C	0.291175	0.253108	0.850079
	C4948	C	0.290256	0.315344	0.845650
	C4949	C	0.290694	0.191090	0.845589
	C4950	C	0.294751	0.190298	0.773615
	C4951	C	0.351234	0.190200	0.774394
	C4952	C	0.351041	0.314588	0.774384
	C4953	C	0.294357	0.314551	0.773543
	C4954	C	0.353398	0.252310	0.787562
	C4955	C	0.307424	0.043225	0.872481
	C4956	C	0.328368	0.042758	0.748695
	C4957	C	0.326482	0.962179	0.744290
	C4958	C	0.307476	0.962290	0.872483
	C4959	C	0.328304	0.961908	0.748681
	N4960	N	0.262487	0.070047	0.809224
	N4961	N	0.262556	0.935542	0.809219
	N4962	N	0.262229	0.435545	0.809191
	N4963	N	0.262244	0.569972	0.809192
	N4964	N	0.316776	0.435439	0.873392
	N4965	N	0.316785	0.569826	0.873393
	N4966	N	0.316864	0.069948	0.873359
	N4967	N	0.316959	0.935519	0.873362
	O4968	O	0.353349	0.694147	0.927094
	O4969	O	0.353343	0.810989	0.927126
	O4970	O	0.274796	0.694595	0.946130
	O4971	O	0.274624	0.811255	0.946155
	O4972	O	0.274881	0.194053	0.946081
	O4973	O	0.274707	0.310759	0.946178
	O4974	O	0.275047	0.694898	0.926076
	O4975	O	0.275068	0.811529	0.926107
	O4976	O	0.274960	0.194194	0.926058
	O4977	O	0.275327	0.310747	0.926121
	O4978	O	0.352932	0.694582	0.947111
	O4979	O	0.352893	0.811488	0.947065
	O4980	O	0.352801	0.194607	0.947106
	O4981	O	0.352855	0.311175	0.947127
	O4982	O	0.353294	0.194737	0.927121
	O4983	O	0.353217	0.311738	0.927168
	O4984	O	0.337295	0.694144	0.883621
	O4985	O	0.296238	0.694872	0.883274
	O4986	O	0.331740	0.694317	0.989981
	O4987	O	0.331686	0.810833	0.990031
	O4988	O	0.290653	0.694381	0.989645
	O4989	O	0.290631	0.811066	0.989678
	O4990	O	0.296509	0.811675	0.883208
	O4991	O	0.337352	0.810982	0.883591
	O4992	O	0.337182	0.194515	0.883616
	O4993	O	0.296336	0.194291	0.883214
	O4994	O	0.331656	0.194486	0.989991
	O4995	O	0.331587	0.311314	0.989998
	O4996	O	0.290582	0.193980	0.989675
	O4997	O	0.290672	0.310830	0.989594
	O4998	O	0.296255	0.311138	0.883235
	O4999	O	0.337075	0.311282	0.883649
	H5000	H	0.280929	0.643385	0.960055
	H5001	H	0.280777	0.862470	0.960074
	H5002	H	0.280743	0.142229	0.960053
	H5003	H	0.281005	0.361864	0.960056
	H5004	H	0.283341	0.863342	0.912454
	H5005	H	0.282571	0.643797	0.912394
	H5006	H	0.283099	0.362270	0.912464
	H5007	H	0.282880	0.142567	0.912418
	H5008	H	0.365286	0.064392	0.938797
	H5009	H	0.371271	0.064523	0.940878
	H5010	H	0.371339	0.940919	0.940861
	H5011	H	0.365281	0.941184	0.938809
	H5012	H	0.367267	0.064068	0.934633
	H5013	H	0.367221	0.941255	0.934596
	H5014	H	0.260497	0.064993	0.934046
	H5015	H	0.260488	0.941016	0.934046
	H5016	H	0.254607	0.064096	0.932781
	H5017	H	0.254697	0.940984	0.932835
	H5018	H	0.247074	0.064123	0.934667
	H5019	H	0.247056	0.941187	0.934650
	H5020	H	0.245736	0.441137	0.943939
	H5021	H	0.264567	0.441259	0.943860
	H5022	H	0.232105	0.440796	0.935162
	H5023	H	0.368089	0.440895	0.934700
	H5024	H	0.378198	0.440881	0.934370
	H5025	H	0.382518	0.440920	0.936750
	H5026	H	0.264630	0.564603	0.943865
	H5027	H	0.245759	0.565003	0.943952
	H5028	H	0.382592	0.564423	0.936757
	H5029	H	0.378220	0.564443	0.934356
	H5030	H	0.368141	0.564532	0.934668
	H5031	H	0.232089	0.564511	0.935169
	H5032	H	0.344922	0.643531	0.960756
	H5033	H	0.345236	0.862897	0.960759
	H5034	H	0.344742	0.143082	0.960791
	H5035	H	0.345073	0.362652	0.960810
	H5036	H	0.288266	0.643878	0.896890
	H5037	H	0.343613	0.642725	0.897494
	H5038	H	0.343504	0.862450	0.897513
	H5039	H	0.288961	0.863696	0.896940
	H5040	H	0.347253	0.642865	0.913202
	H5041	H	0.347156	0.862344	0.913194
	H5042	H	0.339127	0.643506	0.976253
	H5043	H	0.339388	0.862919	0.976259
	H5044	H	0.327897	0.441024	0.872548
	H5045	H	0.316400	0.440850	0.999425
	H5046	H	0.322876	0.441076	0.877286
	H5047	H	0.313260	0.440733	0.877666
	H5048	H	0.307417	0.441044	0.998222
	H5049	H	0.311814	0.440915	0.997689
	H5050	H	0.316486	0.564378	0.999404
	H5051	H	0.328045	0.564292	0.872569
	H5052	H	0.311829	0.564462	0.997669
	H5053	H	0.307474	0.564121	0.998175
	H5054	H	0.313325	0.564542	0.877691
	H5055	H	0.322793	0.563975	0.877309
	H5056	H	0.339097	0.143294	0.976306
	H5057	H	0.339539	0.362617	0.976319
	H5058	H	0.330141	0.064816	0.871181
	H5059	H	0.320987	0.064672	0.867907
	H5060	H	0.326815	0.064522	0.877597
	H5061	H	0.284365	0.862442	0.975769
	H5062	H	0.284558	0.643254	0.975734
	H5063	H	0.284642	0.361734	0.975721
	H5064	H	0.284499	0.142422	0.975756
	H5065	H	0.288588	0.142768	0.896908
	H5066	H	0.343753	0.142819	0.897531
	H5067	H	0.343142	0.362625	0.897528
	H5068	H	0.288706	0.362427	0.896943
	H5069	H	0.347455	0.143190	0.913219
	H5070	H	0.346777	0.362819	0.913221
	H5071	H	0.321182	0.064286	0.998531
	H5072	H	0.314934	0.064552	0.996029
	H5073	H	0.303217	0.064404	0.997137
	H5074	H	0.321044	0.941207	0.867937
	H5075	H	0.330140	0.941206	0.871182
	H5076	H	0.326799	0.940996	0.877580
	H5077	H	0.321099	0.940559	0.998523
	H5078	H	0.314905	0.941249	0.995999
	H5079	H	0.303221	0.941396	0.997123
	Zn5080	Zn	0.254445	0.680464	0.935893
	Zn5081	Zn	0.254347	0.825275	0.935883
	Zn5082	Zn	0.254251	0.180276	0.935855
	Zn5083	Zn	0.254366	0.325276	0.935888
	Zn5084	Zn	0.311172	0.680319	0.999850
	Zn5085	Zn	0.311246	0.825678	0.999883
	Zn5086	Zn	0.311341	0.179736	0.999856
	Zn5087	Zn	0.310993	0.325098	0.999850
	C5088	C	0.351116	0.752590	0.923534
	C5089	C	0.276919	0.752938	0.949725
	C5090	C	0.280856	0.752919	0.959107
	C5091	C	0.281735	0.690942	0.963550
	C5092	C	0.281654	0.814910	0.963566
	C5093	C	0.276999	0.252210	0.949704
	C5094	C	0.280841	0.251982	0.959084
	C5095	C	0.281698	0.189895	0.963533
	C5096	C	0.281808	0.314082	0.963532
	C5097	C	0.277733	0.753308	0.922594
	C5098	C	0.282815	0.753599	0.913372
	C5099	C	0.284512	0.815784	0.908979
	C5100	C	0.284077	0.691518	0.908951
	C5101	C	0.277813	0.252511	0.922599
	C5102	C	0.282889	0.252441	0.913384
	C5103	C	0.284387	0.314570	0.909006
	C5104	C	0.284311	0.190303	0.908982
	C5105	C	0.369732	0.043156	0.939178
	C5106	C	0.369732	0.962246	0.939175
	C5107	C	0.256722	0.043231	0.934050
	C5108	C	0.256735	0.962210	0.934075
	C5109	C	0.249131	0.043098	0.935940
	C5110	C	0.249132	0.962405	0.935942
	C5111	C	0.254954	0.462563	0.941801
	C5112	C	0.368554	0.462205	0.936357
	C5113	C	0.378675	0.462332	0.936036
	C5114	C	0.254993	0.543444	0.941796
	C5115	C	0.378702	0.543224	0.936037
	C5116	C	0.368573	0.542998	0.936347
	C5117	C	0.350248	0.753099	0.950571
	C5118	C	0.350144	0.252854	0.950611
	C5119	C	0.345094	0.753163	0.959784
	C5120	C	0.343540	0.691168	0.964190
	C5121	C	0.343713	0.815201	0.964195
	C5122	C	0.345064	0.252847	0.959829
	C5123	C	0.343479	0.190831	0.964237
	C5124	C	0.343678	0.314928	0.964235
	C5125	C	0.351038	0.253286	0.923575
	C5126	C	0.339627	0.752623	0.887170
	C5127	C	0.293729	0.753471	0.886727
	C5128	C	0.288535	0.752825	0.986075
	C5129	C	0.346423	0.690545	0.909712
	C5130	C	0.346357	0.814698	0.909710
	C5131	C	0.343558	0.752686	0.896558
	C5132	C	0.288798	0.753791	0.895943
	C5133	C	0.287112	0.691652	0.900336
	C5134	C	0.344491	0.690464	0.900996
	C5135	C	0.344439	0.814726	0.901000
	C5136	C	0.287566	0.815893	0.900363
	C5137	C	0.347307	0.752648	0.914161
	C5138	C	0.334238	0.752690	0.986479
	C5139	C	0.340563	0.691163	0.972817
	C5140	C	0.340707	0.815190	0.972820
	C5141	C	0.339178	0.753100	0.977242
	C5142	C	0.314669	0.462317	1.000182
	C5143	C	0.317761	0.462251	0.876424
	C5144	C	0.310011	0.462292	0.998443
	C5145	C	0.314693	0.543069	1.000157
	C5146	C	0.310030	0.543109	0.998425
	C5147	C	0.317744	0.542947	0.876433
	C5148	C	0.334215	0.252963	0.986496
	C5149	C	0.340485	0.190911	0.972860
	C5150	C	0.340698	0.314964	0.972860
	C5151	C	0.339113	0.252942	0.977267
	C5152	C	0.323289	0.043173	0.870539
	C5153	C	0.339412	0.252838	0.887212
	C5154	C	0.293768	0.252648	0.886728
	C5155	C	0.288361	0.252232	0.986064
	C5156	C	0.346385	0.190798	0.909731
	C5157	C	0.346033	0.315016	0.909730
	C5158	C	0.343384	0.252696	0.896574
	C5159	C	0.288837	0.252503	0.895961
	C5160	C	0.284591	0.752862	0.976705
	C5161	C	0.283636	0.814896	0.972275
	C5162	C	0.283700	0.690913	0.972259
	C5163	C	0.284481	0.251994	0.976680
	C5164	C	0.283659	0.314102	0.972235
	C5165	C	0.283592	0.189898	0.972245
	C5166	C	0.287326	0.190415	0.900366
	C5167	C	0.344454	0.190619	0.901016
	C5168	C	0.344116	0.314931	0.901018
	C5169	C	0.287402	0.314597	0.900383
	C5170	C	0.347120	0.252948	0.914179
	C5171	C	0.316301	0.043058	0.997954
	C5172	C	0.319918	0.043275	0.876995
	C5173	C	0.323317	0.962335	0.870549
	C5174	C	0.316240	0.962312	0.997941
	C5175	C	0.319958	0.962507	0.876985
	N5176	N	0.254362	0.070094	0.935875
	N5177	N	0.254300	0.935541	0.935905
	N5178	N	0.254460	0.435558	0.935859
	N5179	N	0.254426	0.570129	0.935848
	N5180	N	0.311104	0.435310	0.999858
	N5181	N	0.311156	0.569885	0.999827
	N5182	N	0.311313	0.069992	0.999879
	N5183	N	0.311242	0.935604	0.999867
	O5184	O	0.464860	0.695169	0.055363
	O5185	O	0.465196	0.811879	0.055342
	O5186	O	0.385815	0.694561	0.074291
	O5187	O	0.385699	0.811307	0.074339
	O5188	O	0.385810	0.194837	0.074305
	O5189	O	0.385790	0.311661	0.074285
	O5190	O	0.386063	0.694337	0.054268
	O5191	O	0.386409	0.811114	0.054384
	O5192	O	0.386364	0.194748	0.054355
	O5193	O	0.386256	0.311379	0.054295
	O5194	O	0.464618	0.694808	0.075229
	O5195	O	0.464616	0.811526	0.075183
	O5196	O	0.464788	0.194938	0.075237
	O5197	O	0.464762	0.311678	0.075311
	O5198	O	0.465158	0.194404	0.055306
	O5199	O	0.465011	0.311193	0.055346
	O5200	O	0.448502	0.694891	0.011890
	O5201	O	0.407669	0.694367	0.011501
	O5202	O	0.443270	0.695139	0.118042
	O5203	O	0.443042	0.811937	0.118066
	O5204	O	0.402411	0.693983	0.117744
	O5205	O	0.402067	0.810796	0.117826
	O5206	O	0.407370	0.811149	0.011428
	O5207	O	0.448418	0.811637	0.011844
	O5208	O	0.448461	0.194765	0.011825
	O5209	O	0.407509	0.194646	0.011387
	O5210	O	0.443093	0.194370	0.118103
	O5211	O	0.443222	0.311067	0.118087
	O5212	O	0.402261	0.194749	0.117768
	O5213	O	0.402320	0.311409	0.117775
	O5214	O	0.407457	0.311386	0.011434
	O5215	O	0.448267	0.311328	0.011862
	H5216	H	0.391870	0.642839	0.088227
	H5217	H	0.391677	0.862216	0.088213
	H5218	H	0.392195	0.143459	0.088174
	H5219	H	0.391910	0.363087	0.088183
	H5220	H	0.394527	0.862874	0.040677
	H5221	H	0.393944	0.643443	0.040625
	H5222	H	0.394214	0.362318	0.040649
	H5223	H	0.394324	0.142788	0.040641
	H5224	H	0.474242	0.065105	0.062953
	H5225	H	0.473409	0.064413	0.067241
	H5226	H	0.473324	0.941662	0.067247
	H5227	H	0.474236	0.941013	0.062943
	H5228	H	0.487661	0.064712	0.060470
	H5229	H	0.487736	0.940831	0.060472
	H5230	H	0.361653	0.064575	0.067005
	H5231	H	0.361714	0.941369	0.066994
	H5232	H	0.368617	0.064977	0.067076
	H5233	H	0.368627	0.941124	0.067119
	H5234	H	0.373380	0.064480	0.063915
	H5235	H	0.373569	0.941654	0.063920
	H5236	H	0.353662	0.441316	0.066717
	H5237	H	0.363075	0.441281	0.069314
	H5238	H	0.354763	0.441259	0.060568
	H5239	H	0.495225	0.441139	0.066396
	H5240	H	0.486911	0.441337	0.069391
	H5241	H	0.478997	0.441373	0.068407
	H5242	H	0.363090	0.565024	0.069272
	H5243	H	0.353635	0.564354	0.066695
	H5244	H	0.478946	0.564578	0.068392
	H5245	H	0.486948	0.564712	0.069397
	H5246	H	0.495087	0.564471	0.066355
	H5247	H	0.354772	0.564704	0.060563
	H5248	H	0.456634	0.643862	0.088863
	H5249	H	0.456271	0.863336	0.088795
	H5250	H	0.456412	0.143042	0.088846
	H5251	H	0.456338	0.362665	0.088906
	H5252	H	0.399607	0.643331	0.025113
	H5253	H	0.454216	0.643645	0.025776
	H5254	H	0.454897	0.863341	0.025762
	H5255	H	0.400208	0.863046	0.025165
	H5256	H	0.458243	0.643632	0.041468
	H5257	H	0.458879	0.863273	0.041435
	H5258	H	0.450781	0.643955	0.104363
	H5259	H	0.450327	0.863309	0.104312
	H5260	H	0.423134	0.441341	0.003103
	H5261	H	0.434727	0.441159	0.128401
	H5262	H	0.422706	0.441361	0.000177
	H5263	H	0.427188	0.441426	-0.000926
	H5264	H	0.417747	0.441296	0.123775
	H5265	H	0.427666	0.441036	0.123784
	H5266	H	0.434669	0.564680	0.128357
	H5267	H	0.423140	0.564498	0.003116
	H5268	H	0.427640	0.564619	0.123747
	H5269	H	0.417718	0.564869	0.123741
	H5270	H	0.427163	0.564700	-0.000937
	H5271	H	0.422720	0.564728	0.000205
	H5272	H	0.450790	0.142731	0.104376
	H5273	H	0.450591	0.362482	0.104402
	H5274	H	0.439865	0.064508	0.002211
	H5275	H	0.436772	0.064768	-0.001576
	H5276	H	0.430660	0.064295	0.006157
	H5277	H	0.395640	0.862288	0.103889
	H5278	H	0.395810	0.642831	0.103920
	H5279	H	0.395656	0.362993	0.103848
	H5280	H	0.395953	0.143635	0.103866
	H5281	H	0.399927	0.142790	0.025110
	H5282	H	0.455164	0.143277	0.025679
	H5283	H	0.454377	0.362733	0.025783
	H5284	H	0.399823	0.362413	0.025146
	H5285	H	0.459150	0.143078	0.041354
	H5286	H	0.458344	0.362608	0.041456
	H5287	H	0.404583	0.063831	0.130419
	H5288	H	0.415935	0.064497	0.135038
	H5289	H	0.437277	0.064657	0.133040
	H5290	H	0.436768	0.941177	-0.001531
	H5291	H	0.439894	0.941212	0.002278
	H5292	H	0.430601	0.941505	0.006185
	H5293	H	0.404668	0.940688	0.130412
	H5294	H	0.416005	0.940960	0.135045
	H5295	H	0.437383	0.941468	0.133058
	Zn5296	Zn	0.365297	0.680772	0.064005
	Zn5297	Zn	0.365389	0.825519	0.064090
	Zn5298	Zn	0.365319	0.180278	0.064060
	Zn5299	Zn	0.365361	0.325154	0.064025
	Zn5300	Zn	0.422951	0.680700	0.127946
	Zn5301	Zn	0.422684	0.825518	0.128001
	Zn5302	Zn	0.422648	0.180244	0.127981
	Zn5303	Zn	0.422954	0.325212	0.127989
	C5304	C	0.462695	0.753542	0.051778
	C5305	C	0.387982	0.752829	0.077897
	C5306	C	0.391916	0.752573	0.087273
	C5307	C	0.392821	0.690455	0.091721
	C5308	C	0.392734	0.814595	0.091706
	C5309	C	0.388045	0.253296	0.077855
	C5310	C	0.392012	0.253263	0.087221
	C5311	C	0.393046	0.191157	0.091655
	C5312	C	0.392903	0.315387	0.091651
	C5313	C	0.388922	0.752887	0.050831
	C5314	C	0.393990	0.753101	0.041602
	C5315	C	0.395705	0.815249	0.037213
	C5316	C	0.395354	0.691096	0.037179
	C5317	C	0.388997	0.252954	0.050826
	C5318	C	0.394071	0.252581	0.041605
	C5319	C	0.395499	0.314615	0.037198
	C5320	C	0.395537	0.190496	0.037179
	C5321	C	0.476944	0.043385	0.065201
	C5322	C	0.476939	0.962481	0.065208
	C5323	C	0.365196	0.043486	0.066266
	C5324	C	0.365201	0.962551	0.066281
	C5325	C	0.370080	0.043253	0.063059
	C5326	C	0.370101	0.962610	0.063075
	C5327	C	0.360184	0.462603	0.066955
	C5328	C	0.491951	0.462664	0.064986
	C5329	C	0.483658	0.462614	0.068015
	C5330	C	0.360172	0.543347	0.066956
	C5331	C	0.483638	0.543202	0.068010
	C5332	C	0.491899	0.543365	0.064971
	C5333	C	0.461871	0.753295	0.078679
	C5334	C	0.461953	0.253185	0.078752
	C5335	C	0.456453	0.753658	0.087856
	C5336	C	0.455049	0.691589	0.092274
	C5337	C	0.454823	0.815714	0.092245
	C5338	C	0.456606	0.252838	0.087921
	C5339	C	0.455059	0.190667	0.092305
	C5340	C	0.455023	0.314937	0.092337
	C5341	C	0.462806	0.252840	0.051749
	C5342	C	0.450671	0.753400	0.015443
	C5343	C	0.404937	0.752825	0.014962
	C5344	C	0.399984	0.752548	0.114215
	C5345	C	0.457436	0.691228	0.037970
	C5346	C	0.457840	0.815555	0.037953
	C5347	C	0.454596	0.753434	0.024814
	C5348	C	0.400023	0.753150	0.024180
	C5349	C	0.398415	0.691039	0.028560
	C5350	C	0.455369	0.691254	0.029263
	C5351	C	0.455767	0.815592	0.029248
	C5352	C	0.398747	0.815312	0.028593
	C5353	C	0.458659	0.753425	0.042405
	C5354	C	0.445645	0.753620	0.114540
	C5355	C	0.451994	0.691663	0.100895
	C5356	C	0.451779	0.815769	0.100866
	C5357	C	0.450434	0.753779	0.105290
	C5358	C	0.429837	0.462522	0.129535
	C5359	C	0.425765	0.462693	0.000145
	C5360	C	0.422777	0.462616	0.124861
	C5361	C	0.429855	0.543269	0.129519
	C5362	C	0.422775	0.543597	0.124863
	C5363	C	0.425812	0.543548	0.000149
	C5364	C	0.445684	0.252663	0.114582
	C5365	C	0.451994	0.190472	0.100922
	C5366	C	0.451923	0.314827	0.100952
	C5367	C	0.450437	0.252503	0.105335
	C5368	C	0.435620	0.043386	0.000656
	C5369	C	0.450630	0.253005	0.015422
	C5370	C	0.404920	0.252928	0.014909
	C5371	C	0.399901	0.253137	0.114196
	C5372	C	0.457963	0.190864	0.037895
	C5373	C	0.457506	0.314992	0.037948
	C5374	C	0.454629	0.253055	0.024782
	C5375	C	0.399989	0.252648	0.024149
	C5376	C	0.395836	0.752655	0.104862
	C5377	C	0.394749	0.814642	0.100410
	C5378	C	0.394862	0.690469	0.100428
	C5379	C	0.395889	0.253224	0.104815
	C5380	C	0.394860	0.315358	0.100359
	C5381	C	0.395003	0.191185	0.100366
	C5382	C	0.398550	0.190531	0.028552
	C5383	C	0.455900	0.190905	0.029188
	C5384	C	0.455434	0.315033	0.029246
	C5385	C	0.398467	0.314620	0.028573
	C5386	C	0.458690	0.252897	0.042377
	C5387	C	0.413541	0.043315	0.131489
	C5388	C	0.426402	0.043269	0.004625
	C5389	C	0.435591	0.962436	0.000680
	C5390	C	0.413582	0.962386	0.131486
	C5391	C	0.426389	0.962613	0.004637
	N5392	N	0.365254	0.070353	0.064099
	N5393	N	0.365276	0.935827	0.064104
	N5394	N	0.365265	0.435700	0.064003
	N5395	N	0.365246	0.570307	0.064007
	N5396	N	0.422938	0.435641	0.127993
	N5397	N	0.422948	0.570252	0.127971
	N5398	N	0.422569	0.070259	0.128007
	N5399	N	0.422668	0.935741	0.128012
	O5400	O	0.451396	0.694174	0.182002
	O5401	O	0.451148	0.811125	0.182076
	O5402	O	0.380587	0.694568	0.200749
	O5403	O	0.380554	0.811266	0.200771
	O5404	O	0.380787	0.194430	0.200714
	O5405	O	0.380745	0.311332	0.200718
	O5406	O	0.380886	0.694654	0.180623
	O5407	O	0.380483	0.811600	0.180570
	O5408	O	0.380348	0.194606	0.180549
	O5409	O	0.380661	0.311463	0.180618
	O5410	O	0.453720	0.694331	0.203286
	O5411	O	0.453626	0.810725	0.203338
	O5412	O	0.453550	0.194889	0.203279
	O5413	O	0.453632	0.311439	0.203290
	O5414	O	0.451186	0.194356	0.182068
	O5415	O	0.451076	0.311194	0.182042
	O5416	O	0.443398	0.694888	0.138166
	O5417	O	0.402037	0.694155	0.137713
	O5418	O	0.430116	0.694227	0.245778
	O5419	O	0.430088	0.810855	0.245752
	O5420	O	0.388861	0.694450	0.244575
	O5421	O	0.389010	0.811078	0.244594
	O5422	O	0.401665	0.810729	0.137665
	O5423	O	0.443095	0.811628	0.138245
	O5424	O	0.443024	0.193437	0.138243
	O5425	O	0.401745	0.195392	0.137735
	O5426	O	0.430267	0.194681	0.245759
	O5427	O	0.430272	0.311511	0.245798
	O5428	O	0.388982	0.194365	0.244547
	O5429	O	0.389035	0.311375	0.244501
	O5430	O	0.402162	0.312116	0.137748
	O5431	O	0.443281	0.310497	0.138250
	H5432	H	0.385260	0.643007	0.214753
	H5433	H	0.384953	0.862616	0.214778
	H5434	H	0.384858	0.142752	0.214768
	H5435	H	0.385212	0.362598	0.214721
	H5436	H	0.387270	0.862720	0.166790
	H5437	H	0.388429	0.643073	0.166947
	H5438	H	0.388319	0.363410	0.166921
	H5439	H	0.387624	0.143662	0.166848
	H5440	H	0.462931	0.064884	0.189348
	H5441	H	0.459193	0.065525	0.192547
	H5442	H	0.459132	0.941239	0.192569
	H5443	H	0.462958	0.941835	0.189314
	H5444	H	0.475359	0.064753	0.188954
	H5445	H	0.475287	0.941417	0.188958
	H5446	H	0.380404	0.064761	0.186193
	H5447	H	0.380459	0.941247	0.186183
	H5448	H	0.364724	0.064633	0.181522
	H5449	H	0.364662	0.941210	0.181532
	H5450	H	0.340488	0.064929	0.185588
	H5451	H	0.340384	0.941553	0.185608
	H5452	H	0.348286	0.440222	0.190188
	H5453	H	0.352061	0.441228	0.193935
	H5454	H	0.356646	0.440859	0.185955
	H5455	H	0.461874	0.441105	0.197291
	H5456	H	0.455889	0.441017	0.191042
	H5457	H	0.463732	0.441384	0.187351
	H5458	H	0.352036	0.563901	0.193882
	H5459	H	0.348173	0.564770	0.190126
	H5460	H	0.463707	0.564389	0.187403
	H5461	H	0.455983	0.565300	0.191071
	H5462	H	0.461879	0.565044	0.197346
	H5463	H	0.356687	0.564254	0.185859
	H5464	H	0.447952	0.643051	0.217085
	H5465	H	0.447290	0.861924	0.217065
	H5466	H	0.447016	0.143610	0.217027
	H5467	H	0.447797	0.362617	0.217125
	H5468	H	0.394143	0.642620	0.151438
	H5469	H	0.447985	0.642885	0.152186
	H5470	H	0.447057	0.862766	0.152290
	H5471	H	0.393008	0.862210	0.151267
	H5472	H	0.448904	0.642659	0.167943
	H5473	H	0.447914	0.862459	0.168019
	H5474	H	0.440851	0.642965	0.232491
	H5475	H	0.440248	0.861938	0.232462
	H5476	H	0.429952	0.441009	0.131796
	H5477	H	0.405923	0.440863	0.251661
	H5478	H	0.416375	0.441326	0.131763
	H5479	H	0.411224	0.441798	0.128390
	H5480	H	0.401018	0.441268	0.257531
	H5481	H	0.398805	0.441150	0.254653
	H5482	H	0.405853	0.564485	0.251622
	H5483	H	0.429903	0.564616	0.131786
	H5484	H	0.398760	0.564454	0.254655
	H5485	H	0.401071	0.564816	0.257544
	H5486	H	0.411292	0.565053	0.128390
	H5487	H	0.416399	0.564728	0.131796
	H5488	H	0.440182	0.143569	0.232449
	H5489	H	0.440925	0.362459	0.232555
	H5490	H	0.425991	0.065087	0.120594
	H5491	H	0.410339	0.064275	0.122032
	H5492	H	0.441460	0.065225	0.126898
	H5493	H	0.385878	0.862410	0.230540
	H5494	H	0.386153	0.642906	0.230458
	H5495	H	0.386192	0.362514	0.230436
	H5496	H	0.385888	0.142885	0.230485
	H5497	H	0.393404	0.143855	0.151347
	H5498	H	0.446983	0.142180	0.152281
	H5499	H	0.448195	0.361842	0.152208
	H5500	H	0.394171	0.363663	0.151418
	H5501	H	0.447790	0.142470	0.168023
	H5502	H	0.449037	0.362426	0.167931
	H5503	H	0.410883	0.064232	0.256278
	H5504	H	0.411795	0.064383	0.254987
	H5505	H	0.408774	0.065047	0.253682
	H5506	H	0.410502	0.941295	0.122048
	H5507	H	0.426136	0.941248	0.120562
	H5508	H	0.441658	0.941605	0.126916
	H5509	H	0.410896	0.941024	0.256229
	H5510	H	0.411776	0.941279	0.254964
	H5511	H	0.408686	0.941293	0.253725
	Zn5512	Zn	0.360263	0.680203	0.190466
	Zn5513	Zn	0.360185	0.825561	0.190472
	Zn5514	Zn	0.360257	0.179920	0.190501
	Zn5515	Zn	0.360296	0.325474	0.190497
	Zn5516	Zn	0.407810	0.680237	0.255198
	Zn5517	Zn	0.407996	0.825673	0.255153
	Zn5518	Zn	0.407932	0.180348	0.255189
	Zn5519	Zn	0.407985	0.325771	0.255194
	C5520	C	0.449914	0.752767	0.178394
	C5521	C	0.382423	0.752916	0.204380
	C5522	C	0.385192	0.752934	0.213809
	C5523	C	0.385447	0.690774	0.218251
	C5524	C	0.385304	0.814944	0.218283
	C5525	C	0.382516	0.252895	0.204341
	C5526	C	0.385206	0.252738	0.213775
	C5527	C	0.385288	0.190568	0.218240
	C5528	C	0.385460	0.314892	0.218208
	C5529	C	0.383229	0.753131	0.177096
	C5530	C	0.387949	0.752890	0.167843
	C5531	C	0.388943	0.814873	0.163376
	C5532	C	0.389610	0.690669	0.163464
	C5533	C	0.382946	0.253157	0.177073
	C5534	C	0.387755	0.253479	0.167845
	C5535	C	0.389481	0.315723	0.163464
	C5536	C	0.389061	0.191456	0.163429
	C5537	C	0.463361	0.043640	0.191385
	C5538	C	0.463322	0.962844	0.191394
	C5539	C	0.369337	0.043241	0.185600
	C5540	C	0.369335	0.962376	0.185593
	C5541	C	0.344945	0.043360	0.189677
	C5542	C	0.344868	0.962570	0.189673
	C5543	C	0.352809	0.462281	0.191636
	C5544	C	0.468390	0.462681	0.196398
	C5545	C	0.462441	0.462744	0.190094
	C5546	C	0.352783	0.543290	0.191605
	C5547	C	0.462477	0.543674	0.190131
	C5548	C	0.468436	0.543465	0.196430
	C5549	C	0.451862	0.752414	0.206885
	C5550	C	0.451739	0.253169	0.206854
	C5551	C	0.447651	0.752538	0.216121
	C5552	C	0.446227	0.690585	0.220500
	C5553	C	0.445863	0.814377	0.220493
	C5554	C	0.447487	0.253174	0.216102
	C5555	C	0.445712	0.191165	0.220467
	C5556	C	0.446111	0.314964	0.220527
	C5557	C	0.449840	0.252719	0.178409
	C5558	C	0.445031	0.753150	0.141819
	C5559	C	0.399144	0.752457	0.141191
	C5560	C	0.387655	0.752825	0.240923
	C5561	C	0.448300	0.690371	0.164445
	C5562	C	0.447774	0.814710	0.164498
	C5563	C	0.447563	0.752810	0.151272
	C5564	C	0.393899	0.752473	0.150386
	C5565	C	0.392609	0.690482	0.154837
	C5566	C	0.448019	0.690532	0.155703
	C5567	C	0.447486	0.814842	0.155764
	C5568	C	0.391943	0.814639	0.154748
	C5569	C	0.448008	0.752473	0.168925
	C5570	C	0.433437	0.752494	0.242396
	C5571	C	0.442458	0.690495	0.229056
	C5572	C	0.442092	0.814416	0.229047
	C5573	C	0.440133	0.752451	0.233383
	C5574	C	0.409078	0.462512	0.252840
	C5575	C	0.416229	0.462648	0.129529
	C5576	C	0.401945	0.462721	0.255848
	C5577	C	0.409062	0.543269	0.252837
	C5578	C	0.401933	0.543473	0.255849
	C5579	C	0.416224	0.543503	0.129517
	C5580	C	0.433525	0.253151	0.242408
	C5581	C	0.441991	0.190995	0.229030
	C5582	C	0.442360	0.315048	0.229087
	C5583	C	0.440155	0.252998	0.233383
	C5584	C	0.419371	0.043243	0.123061
	C5585	C	0.444944	0.251884	0.141854
	C5586	C	0.399168	0.253842	0.141224
	C5587	C	0.387704	0.252781	0.240885
	C5588	C	0.447833	0.190165	0.164523
	C5589	C	0.448490	0.314501	0.164475
	C5590	C	0.447616	0.251936	0.151316
	C5591	C	0.393811	0.253804	0.150418
	C5592	C	0.385799	0.752820	0.231468
	C5593	C	0.385693	0.814816	0.227020
	C5594	C	0.385833	0.690768	0.226980
	C5595	C	0.385724	0.252706	0.231422
	C5596	C	0.385808	0.314857	0.226943
	C5597	C	0.385669	0.190530	0.226978
	C5598	C	0.392117	0.191560	0.154808
	C5599	C	0.447503	0.189878	0.155788
	C5600	C	0.448157	0.314289	0.155739
	C5601	C	0.392569	0.315921	0.154846
	C5602	C	0.448079	0.252442	0.168960
	C5603	C	0.410380	0.043201	0.255510
	C5604	C	0.435033	0.043551	0.129457
	C5605	C	0.419453	0.962462	0.123071
	C5606	C	0.410379	0.962540	0.255511
	C5607	C	0.435072	0.962824	0.129468
	N5608	N	0.360262	0.069794	0.190462
	N5609	N	0.360241	0.935374	0.190466
	N5610	N	0.360261	0.435796	0.190504
	N5611	N	0.360302	0.570271	0.190462
	N5612	N	0.407774	0.435778	0.255177
	N5613	N	0.407750	0.570242	0.255199
	N5614	N	0.407825	0.070245	0.255168
	N5615	N	0.407867	0.935731	0.255201
	O5616	O	0.507328	0.694919	0.296946
	O5617	O	0.507437	0.811314	0.296894
	O5618	O	0.370755	0.694582	0.326404
	O5619	O	0.370726	0.811077	0.326391
	O5620	O	0.370711	0.194160	0.326396
	O5621	O	0.370718	0.310448	0.326397
	O5622	O	0.368201	0.695106	0.308292
	O5623	O	0.368020	0.811830	0.308292
	O5624	O	0.368116	0.194338	0.308267
	O5625	O	0.368161	0.311062	0.308292
	O5626	O	0.510141	0.695190	0.314977
	O5627	O	0.510176	0.811880	0.315017
	O5628	O	0.510106	0.194458	0.315023
	O5629	O	0.510099	0.311380	0.314993
	O5630	O	0.507513	0.194905	0.296893
	O5631	O	0.507229	0.311120	0.296951
	O5632	O	0.432846	0.694310	0.263803
	O5633	O	0.391390	0.695288	0.265843
	O5634	O	0.486546	0.694396	0.357404
	O5635	O	0.486648	0.810955	0.357493
	O5636	O	0.445359	0.694815	0.359490
	O5637	O	0.445142	0.811325	0.359522
	O5638	O	0.391456	0.811594	0.265832
	O5639	O	0.432868	0.810656	0.263840
	O5640	O	0.432843	0.194430	0.263827
	O5641	O	0.391095	0.194692	0.265758
	O5642	O	0.486620	0.195064	0.357474
	O5643	O	0.486693	0.311521	0.357483
	O5644	O	0.445346	0.194284	0.359493
	O5645	O	0.445078	0.310800	0.359530
	O5646	O	0.391203	0.311234	0.265777
	O5647	O	0.432791	0.310578	0.263842
	H5648	H	0.394751	0.644016	0.336960
	H5649	H	0.394976	0.861913	0.336890
	H5650	H	0.394796	0.143508	0.336995
	H5651	H	0.394847	0.361110	0.336910
	H5652	H	0.378297	0.862718	0.295018
	H5653	H	0.378725	0.644355	0.295024
	H5654	H	0.378641	0.362126	0.294989
	H5655	H	0.378197	0.143426	0.294942
	H5656	H	0.533543	0.064571	0.305896
	H5657	H	0.533938	0.064413	0.305513
	H5658	H	0.533902	0.941186	0.305483
	H5659	H	0.533595	0.941101	0.305912
	H5660	H	0.532052	0.064497	0.306068
	H5661	H	0.532042	0.941663	0.306091
	H5662	H	0.342044	0.064361	0.320611
	H5663	H	0.342066	0.940915	0.320630
	H5664	H	0.348822	0.064332	0.320689
	H5665	H	0.348896	0.941087	0.320711
	H5666	H	0.353746	0.064461	0.317613
	H5667	H	0.353823	0.941685	0.317582
	H5668	H	0.338412	0.441146	0.319920
	H5669	H	0.345429	0.441002	0.321386
	H5670	H	0.337883	0.441067	0.315622
	H5671	H	0.533975	0.441346	0.307788
	H5672	H	0.527555	0.441356	0.306845
	H5673	H	0.526787	0.441579	0.304900
	H5674	H	0.345405	0.564841	0.321390
	H5675	H	0.338436	0.564716	0.319919
	H5676	H	0.526750	0.564769	0.304936
	H5677	H	0.527645	0.564773	0.306855
	H5678	H	0.533872	0.564528	0.307827
	H5679	H	0.337951	0.564054	0.315586
	H5680	H	0.499695	0.643874	0.328269
	H5681	H	0.499842	0.862709	0.328331
	H5682	H	0.499939	0.143588	0.328330
	H5683	H	0.499393	0.362799	0.328249
	H5684	H	0.385451	0.644301	0.279599
	H5685	H	0.456738	0.644293	0.274423
	H5686	H	0.456962	0.860888	0.274317
	H5687	H	0.385149	0.862783	0.279602
	H5688	H	0.483144	0.644584	0.286428
	H5689	H	0.483413	0.861238	0.286320
	H5690	H	0.492439	0.643512	0.343646
	H5691	H	0.492717	0.862346	0.343727
	H5692	H	0.413379	0.441595	0.252407
	H5693	H	0.458254	0.441087	0.366437
	H5694	H	0.416517	0.441433	0.256316
	H5695	H	0.411428	0.441004	0.258564
	H5696	H	0.472783	0.441138	0.373092
	H5697	H	0.462418	0.440848	0.371951
	H5698	H	0.458352	0.564188	0.366422
	H5699	H	0.413306	0.564542	0.252383
	H5700	H	0.462414	0.564360	0.371957
	H5701	H	0.472775	0.564253	0.373091
	H5702	H	0.411285	0.565322	0.258541
	H5703	H	0.416444	0.564607	0.256340
	H5704	H	0.492992	0.144049	0.343729
	H5705	H	0.492452	0.362728	0.343680
	H5706	H	0.404151	0.064754	0.255651
	H5707	H	0.406342	0.065060	0.256591
	H5708	H	0.405548	0.064698	0.253932
	H5709	H	0.421398	0.862087	0.348882
	H5710	H	0.421161	0.643853	0.348940
	H5711	H	0.421236	0.361235	0.348907
	H5712	H	0.421155	0.143797	0.349001
	H5713	H	0.384976	0.143344	0.279501
	H5714	H	0.457013	0.144636	0.274363
	H5715	H	0.456855	0.360812	0.274415
	H5716	H	0.385365	0.362099	0.279563
	H5717	H	0.483414	0.144874	0.286333
	H5718	H	0.483261	0.360636	0.286402
	H5719	H	0.471502	0.064367	0.364818
	H5720	H	0.464616	0.064157	0.365604
	H5721	H	0.462449	0.064291	0.369328
	H5722	H	0.406535	0.941283	0.256604
	H5723	H	0.404232	0.941434	0.255679
	H5724	H	0.405524	0.941593	0.253962
	H5725	H	0.471374	0.940897	0.364789
	H5726	H	0.464579	0.941334	0.365594
	H5727	H	0.462439	0.941262	0.369278
	Zn5728	Zn	0.346008	0.679930	0.317677
	Zn5729	Zn	0.345895	0.825348	0.317726
	Zn5730	Zn	0.345819	0.180302	0.317709
	Zn5731	Zn	0.345943	0.325482	0.317723
	Zn5732	Zn	0.470232	0.680004	0.368132
	Zn5733	Zn	0.470183	0.825128	0.368141
	Zn5734	Zn	0.470279	0.180273	0.368179
	Zn5735	Zn	0.470177	0.325428	0.368131
	C5736	C	0.500940	0.753097	0.294242
	C5737	C	0.377168	0.752844	0.329070
	C5738	C	0.393336	0.752911	0.336194
	C5739	C	0.400685	0.691258	0.339618
	C5740	C	0.400790	0.814678	0.339582
	C5741	C	0.377146	0.252325	0.329075
	C5742	C	0.393320	0.252325	0.336191
	C5743	C	0.400685	0.190778	0.339638
	C5744	C	0.400723	0.313940	0.339585
	C5745	C	0.371399	0.753492	0.304923
	C5746	C	0.378047	0.753456	0.295917
	C5747	C	0.380021	0.815345	0.291588
	C5748	C	0.380233	0.691679	0.291585
	C5749	C	0.371432	0.252709	0.304912
	C5750	C	0.378089	0.252746	0.295887
	C5751	C	0.380199	0.314631	0.291550
	C5752	C	0.379983	0.190841	0.291530
	C5753	C	0.533447	0.043508	0.305667
	C5754	C	0.533470	0.962542	0.305682
	C5755	C	0.345436	0.043125	0.319863
	C5756	C	0.345479	0.962318	0.319891
	C5757	C	0.350366	0.043271	0.316701
	C5758	C	0.350416	0.962697	0.316707
	C5759	C	0.342875	0.462471	0.319878
	C5760	C	0.534948	0.462536	0.306767
	C5761	C	0.528607	0.462725	0.305791
	C5762	C	0.342861	0.543494	0.319855
	C5763	C	0.528632	0.543447	0.305806
	C5764	C	0.534950	0.543385	0.306794
	C5765	C	0.506833	0.753452	0.318362
	C5766	C	0.506766	0.252999	0.318360
	C5767	C	0.500209	0.753261	0.327387
	C5768	C	0.497983	0.691216	0.331694
	C5769	C	0.498097	0.815126	0.331743
	C5770	C	0.500078	0.253198	0.327368
	C5771	C	0.498143	0.191231	0.331723
	C5772	C	0.497856	0.315222	0.331690
	C5773	C	0.500991	0.252935	0.294229
	C5774	C	0.439214	0.752437	0.266517
	C5775	C	0.389584	0.753523	0.269414
	C5776	C	0.438850	0.752999	0.356827
	C5777	C	0.477286	0.691583	0.283746
	C5778	C	0.477430	0.814139	0.283688
	C5779	C	0.455314	0.752542	0.273661
	C5780	C	0.385397	0.753549	0.278661
	C5781	C	0.383958	0.691732	0.283033
	C5782	C	0.462692	0.691313	0.277075
	C5783	C	0.462823	0.813953	0.277022
	C5784	C	0.383760	0.815359	0.283039
	C5785	C	0.484751	0.752954	0.287134
	C5786	C	0.488438	0.752803	0.353884
	C5787	C	0.494203	0.691096	0.340247
	C5788	C	0.494315	0.814918	0.340296
	C5789	C	0.492665	0.752939	0.344640
	C5790	C	0.464187	0.462509	0.365777
	C5791	C	0.412255	0.462423	0.256837
	C5792	C	0.468331	0.462297	0.371367
	C5793	C	0.464234	0.542985	0.365767
	C5794	C	0.468348	0.543242	0.371367
	C5795	C	0.412235	0.543430	0.256847
	C5796	C	0.488485	0.253301	0.353899
	C5797	C	0.494412	0.191350	0.340276
	C5798	C	0.494125	0.315304	0.340250
	C5799	C	0.492708	0.253306	0.344635
	C5800	C	0.405921	0.043490	0.255887
	C5801	C	0.439245	0.252529	0.266512
	C5802	C	0.389390	0.252918	0.269348
	C5803	C	0.438823	0.252444	0.356832
	C5804	C	0.477500	0.191719	0.283680
	C5805	C	0.477419	0.313863	0.283726
	C5806	C	0.455423	0.252733	0.273633
	C5807	C	0.385281	0.252731	0.278601
	C5808	C	0.422744	0.752919	0.349687
	C5809	C	0.415422	0.814608	0.346251
	C5810	C	0.415303	0.691292	0.346284
	C5811	C	0.422713	0.252469	0.349690
	C5812	C	0.415336	0.314003	0.346255
	C5813	C	0.415316	0.190892	0.346297
	C5814	C	0.383631	0.190781	0.282960
	C5815	C	0.462854	0.191578	0.277027
	C5816	C	0.462797	0.313943	0.277060
	C5817	C	0.383833	0.314583	0.282987
	C5818	C	0.484861	0.252801	0.287108
	C5819	C	0.468696	0.043029	0.365985
	C5820	C	0.407276	0.043581	0.254180
	C5821	C	0.405997	0.962530	0.255897
	C5822	C	0.468667	0.962345	0.365973
	C5823	C	0.407261	0.962737	0.254191
	N5824	N	0.345523	0.070146	0.317725
	N5825	N	0.345562	0.935558	0.317736
	N5826	N	0.345790	0.435579	0.317679
	N5827	N	0.345762	0.570043	0.317674
	N5828	N	0.470291	0.435504	0.368154
	N5829	N	0.470376	0.570012	0.368144
	N5830	N	0.470380	0.069967	0.368141
	N5831	N	0.470291	0.935320	0.368118
	O5832	O	0.497727	0.692970	0.422529
	O5833	O	0.497101	0.809721	0.422527
	O5834	O	0.426016	0.694911	0.441070
	O5835	O	0.425921	0.811495	0.441153
	O5836	O	0.425897	0.194590	0.441142
	O5837	O	0.426173	0.311419	0.441058
	O5838	O	0.423537	0.694009	0.419888
	O5839	O	0.423665	0.810693	0.419933
	O5840	O	0.423668	0.194606	0.419932
	O5841	O	0.423487	0.311067	0.419893
	O5842	O	0.497427	0.693058	0.442710
	O5843	O	0.496850	0.809632	0.442588
	O5844	O	0.496996	0.196315	0.442633
	O5845	O	0.497611	0.313145	0.442726
	O5846	O	0.496877	0.195976	0.422569
	O5847	O	0.497560	0.312823	0.422550
	O5848	O	0.489459	0.694312	0.378651
	O5849	O	0.448031	0.694601	0.377524
	O5850	O	0.475590	0.694452	0.485510
	O5851	O	0.475534	0.811259	0.485453
	O5852	O	0.434418	0.694670	0.484921
	O5853	O	0.434233	0.811456	0.484933
	O5854	O	0.448068	0.811330	0.377568
	O5855	O	0.489064	0.811146	0.378763
	O5856	O	0.489004	0.194885	0.378793
	O5857	O	0.447890	0.194275	0.377557
	O5858	O	0.475550	0.195307	0.485487
	O5859	O	0.475728	0.312102	0.485535
	O5860	O	0.434161	0.194842	0.484930
	O5861	O	0.434568	0.311617	0.484915
	O5862	O	0.447723	0.311013	0.377484
	O5863	O	0.489225	0.311777	0.378715
	H5864	H	0.429235	0.643040	0.455191
	H5865	H	0.428848	0.862648	0.455211
	H5866	H	0.428856	0.143542	0.455146
	H5867	H	0.429295	0.363189	0.455174
	H5868	H	0.430410	0.861878	0.406248
	H5869	H	0.430030	0.642943	0.406162
	H5870	H	0.429886	0.361954	0.406158
	H5871	H	0.429948	0.143006	0.406168
	H5872	H	0.535580	0.064271	0.436967
	H5873	H	0.536883	0.065260	0.430051
	H5874	H	0.537048	0.941118	0.430085
	H5875	H	0.535613	0.941515	0.437039
	H5876	H	0.513891	0.064755	0.440886
	H5877	H	0.513894	0.941563	0.440921
	H5878	H	0.408293	0.064436	0.432403
	H5879	H	0.408355	0.941181	0.432403
	H5880	H	0.411564	0.065025	0.431430
	H5881	H	0.411578	0.941422	0.431385
	H5882	H	0.410601	0.065096	0.429137
	H5883	H	0.410669	0.941332	0.429110
	H5884	H	0.389911	0.441451	0.433477
	H5885	H	0.401896	0.441532	0.437663
	H5886	H	0.394072	0.441126	0.425146
	H5887	H	0.528602	0.441459	0.431664
	H5888	H	0.524624	0.441398	0.436312
	H5889	H	0.515698	0.441368	0.436976
	H5890	H	0.401966	0.564944	0.437604
	H5891	H	0.390111	0.564615	0.433411
	H5892	H	0.515738	0.564892	0.436929
	H5893	H	0.524561	0.564911	0.436278
	H5894	H	0.528512	0.564915	0.431656
	H5895	H	0.393948	0.564073	0.425194
	H5896	H	0.490205	0.641771	0.456473
	H5897	H	0.489280	0.861513	0.456277
	H5898	H	0.489319	0.144437	0.456305
	H5899	H	0.490181	0.364218	0.456486
	H5900	H	0.437242	0.643261	0.390764
	H5901	H	0.492525	0.642375	0.392684
	H5902	H	0.491644	0.862433	0.392799
	H5903	H	0.437706	0.862083	0.390842
	H5904	H	0.493441	0.641868	0.408417
	H5905	H	0.492474	0.861644	0.408537
	H5906	H	0.484414	0.642465	0.471971
	H5907	H	0.483574	0.862181	0.471795
	H5908	H	0.465600	0.441245	0.363448
	H5909	H	0.436250	0.441760	0.499297
	H5910	H	0.479746	0.440905	0.364931
	H5911	H	0.482749	0.441174	0.368985
	H5912	H	0.473186	0.441268	0.499609
	H5913	H	0.458549	0.441402	0.503585
	H5914	H	0.436285	0.564756	0.499306
	H5915	H	0.465670	0.564557	0.363412
	H5916	H	0.458400	0.565097	0.503547
	H5917	H	0.473111	0.564938	0.499612
	H5918	H	0.482914	0.564430	0.369003
	H5919	H	0.479914	0.564687	0.364952
	H5920	H	0.483436	0.144003	0.471817
	H5921	H	0.484376	0.363738	0.471979
	H5922	H	0.476995	0.064553	0.370258
	H5923	H	0.478557	0.064234	0.367546
	H5924	H	0.467713	0.064786	0.371309
	H5925	H	0.429804	0.862754	0.470935
	H5926	H	0.430113	0.643168	0.470920
	H5927	H	0.430185	0.363230	0.470875
	H5928	H	0.429751	0.143318	0.470899
	H5929	H	0.437237	0.142997	0.390795
	H5930	H	0.491543	0.143993	0.392853
	H5931	H	0.492645	0.363939	0.392764
	H5932	H	0.437204	0.362087	0.390772
	H5933	H	0.492247	0.144561	0.408592
	H5934	H	0.493450	0.364456	0.408497
	H5935	H	0.445096	0.064786	0.494785
	H5936	H	0.447922	0.064630	0.497799
	H5937	H	0.458870	0.064744	0.498608
	H5938	H	0.478579	0.941061	0.367545
	H5939	H	0.476925	0.941215	0.370234
	H5940	H	0.467561	0.940855	0.371322
	H5941	H	0.445076	0.941153	0.494766
	H5942	H	0.447874	0.941062	0.497791
	H5943	H	0.458858	0.941195	0.498600
	Zn5944	Zn	0.406891	0.680120	0.430505
	Zn5945	Zn	0.406958	0.825402	0.430522
	Zn5946	Zn	0.406865	0.180314	0.430525
	Zn5947	Zn	0.406913	0.325648	0.430529
	Zn5948	Zn	0.454531	0.680414	0.495204
	Zn5949	Zn	0.454477	0.825688	0.495185
	Zn5950	Zn	0.454604	0.180436	0.495168
	Zn5951	Zn	0.454658	0.325644	0.495236
	C5952	C	0.495620	0.751280	0.418906
	C5953	C	0.427310	0.753024	0.444770
	C5954	C	0.429246	0.752810	0.454224
	C5955	C	0.429359	0.690834	0.458687
	C5956	C	0.429173	0.814923	0.458697
	C5957	C	0.427440	0.253148	0.444743
	C5958	C	0.429293	0.253320	0.454200
	C5959	C	0.429222	0.191168	0.458658
	C5960	C	0.429437	0.315405	0.458660
	C5961	C	0.425549	0.752404	0.416349
	C5962	C	0.430048	0.752467	0.407124
	C5963	C	0.431893	0.814488	0.402787
	C5964	C	0.431684	0.690510	0.402745
	C5965	C	0.425561	0.252723	0.416355
	C5966	C	0.430109	0.252522	0.407126
	C5967	C	0.431687	0.314501	0.402748
	C5968	C	0.431679	0.190555	0.402761
	C5969	C	0.531275	0.043400	0.433312
	C5970	C	0.531301	0.962699	0.433332
	C5971	C	0.409205	0.043447	0.431544
	C5972	C	0.409250	0.962689	0.431526
	C5973	C	0.408266	0.043384	0.429274
	C5974	C	0.408275	0.962594	0.429262
	C5975	C	0.398915	0.462492	0.434247
	C5976	C	0.523614	0.462619	0.430943
	C5977	C	0.519638	0.462659	0.435630
	C5978	C	0.398957	0.543344	0.434231
	C5979	C	0.519641	0.543629	0.435611
	C5980	C	0.523570	0.543582	0.430944
	C5981	C	0.494626	0.751413	0.446175
	C5982	C	0.494755	0.254692	0.446185
	C5983	C	0.489772	0.751636	0.455404
	C5984	C	0.488643	0.689660	0.459872
	C5985	C	0.488163	0.814029	0.459766
	C5986	C	0.489923	0.254382	0.455421
	C5987	C	0.488172	0.192058	0.459782
	C5988	C	0.488680	0.316313	0.459880
	C5989	C	0.495409	0.254485	0.418949
	C5990	C	0.490606	0.752575	0.382354
	C5991	C	0.444688	0.752909	0.380893
	C5992	C	0.432556	0.753048	0.481314
	C5993	C	0.492974	0.689729	0.404955
	C5994	C	0.492417	0.813996	0.405026
	C5995	C	0.492420	0.752393	0.391812
	C5996	C	0.437852	0.752725	0.389890
	C5997	C	0.435612	0.690653	0.394203
	C5998	C	0.492616	0.689969	0.396219
	C5999	C	0.492094	0.814449	0.396287
	C6000	C	0.435827	0.814585	0.394245
	C6001	C	0.492997	0.751638	0.409463
	C6002	C	0.478316	0.752777	0.482009
	C6003	C	0.485542	0.690089	0.468487
	C6004	C	0.485106	0.814373	0.468385
	C6005	C	0.483686	0.752413	0.472822
	C6006	C	0.440488	0.462798	0.495623
	C6007	C	0.478443	0.462220	0.367285
	C6008	C	0.462885	0.462673	0.499926
	C6009	C	0.440509	0.543401	0.495626
	C6010	C	0.462852	0.543701	0.499918
	C6011	C	0.478500	0.543300	0.367288
	C6012	C	0.478430	0.253761	0.482039
	C6013	C	0.485064	0.191802	0.468401
	C6014	C	0.485562	0.316059	0.468494
	C6015	C	0.483766	0.253816	0.472846
	C6016	C	0.475881	0.043151	0.368713
	C6017	C	0.490407	0.253516	0.382402
	C6018	C	0.444472	0.252742	0.380878
	C6019	C	0.432607	0.253238	0.481306
	C6020	C	0.492196	0.192215	0.405073
	C6021	C	0.492864	0.316544	0.405021
	C6022	C	0.492179	0.253960	0.391868
	C6023	C	0.437764	0.252598	0.389884
	C6024	C	0.429848	0.752934	0.471879
	C6025	C	0.429579	0.815084	0.467432
	C6026	C	0.429742	0.690845	0.467419
	C6027	C	0.429984	0.253204	0.471855
	C6028	C	0.429860	0.315393	0.467395
	C6029	C	0.429634	0.191041	0.467395
	C6030	C	0.435551	0.190555	0.394210
	C6031	C	0.491882	0.191890	0.396342
	C6032	C	0.492524	0.316297	0.396290
	C6033	C	0.435569	0.314573	0.394206
	C6034	C	0.492650	0.254507	0.409509
	C6035	C	0.448676	0.043512	0.495982
	C6036	C	0.466494	0.043267	0.369751
	C6037	C	0.475863	0.962335	0.368703
	C6038	C	0.448611	0.962692	0.495988
	C6039	C	0.466432	0.962309	0.369736
	N6040	N	0.407070	0.070213	0.430514
	N6041	N	0.407188	0.935678	0.430492
	N6042	N	0.407140	0.435586	0.430563
	N6043	N	0.407102	0.570056	0.430552
	N6044	N	0.454714	0.435704	0.495253
	N6045	N	0.454646	0.570191	0.495250
	N6046	N	0.454695	0.070500	0.495131
	N6047	N	0.454647	0.935977	0.495137
	O6048	O	0.491625	0.694907	0.548891
	O6049	O	0.491432	0.811584	0.548901
	O6050	O	0.413316	0.695243	0.567880
	O6051	O	0.412583	0.812123	0.567994
	O6052	O	0.412614	0.193884	0.568019
	O6053	O	0.413357	0.310460	0.567894
	O6054	O	0.413474	0.695328	0.548029
	O6055	O	0.413362	0.812214	0.548046
	O6056	O	0.413016	0.193456	0.547958
	O6057	O	0.413344	0.310191	0.548013
	O6058	O	0.491157	0.694931	0.569015
	O6059	O	0.491044	0.811624	0.568922
	O6060	O	0.491043	0.194500	0.568927
	O6061	O	0.491168	0.311147	0.569009
	O6062	O	0.491255	0.194169	0.548937
	O6063	O	0.491362	0.310930	0.548950
	O6064	O	0.475338	0.694764	0.505378
	O6065	O	0.434313	0.694829	0.505142
	O6066	O	0.470376	0.696075	0.611896
	O6067	O	0.469498	0.812838	0.611791
	O6068	O	0.429541	0.692954	0.611349
	O6069	O	0.428556	0.809769	0.611483
	O6070	O	0.433946	0.811659	0.505046
	O6071	O	0.474977	0.811588	0.505408
	O6072	O	0.475034	0.194253	0.505436
	O6073	O	0.434266	0.194312	0.505073
	O6074	O	0.469569	0.192948	0.611791
	O6075	O	0.470323	0.309833	0.611891
	O6076	O	0.428541	0.195975	0.611502
	O6077	O	0.429327	0.312788	0.611459
	O6078	O	0.434263	0.310971	0.505111
	O6079	O	0.475079	0.310958	0.505440
	H6080	H	0.420300	0.643163	0.581716
	H6081	H	0.418301	0.862833	0.581920
	H6082	H	0.418077	0.143160	0.582009
	H6083	H	0.420268	0.362671	0.581788
	H6084	H	0.420936	0.863937	0.534279
	H6085	H	0.421830	0.644015	0.534433
	H6086	H	0.421914	0.361785	0.534429
	H6087	H	0.421079	0.142087	0.534277
	H6088	H	0.510246	0.064141	0.561209
	H6089	H	0.514744	0.064894	0.560995
	H6090	H	0.514735	0.941022	0.561045
	H6091	H	0.510193	0.941552	0.561126
	H6092	H	0.506436	0.064710	0.559201
	H6093	H	0.506516	0.941756	0.559153
	H6094	H	0.393126	0.064248	0.554516
	H6095	H	0.393074	0.941312	0.554500
	H6096	H	0.386501	0.064541	0.555345
	H6097	H	0.386536	0.940959	0.555328
	H6098	H	0.384732	0.064684	0.559020
	H6099	H	0.384692	0.941063	0.558998
	H6100	H	0.395168	0.441262	0.558086
	H6101	H	0.394939	0.441227	0.557219
	H6102	H	0.392880	0.441589	0.558758
	H6103	H	0.521156	0.441042	0.561530
	H6104	H	0.509662	0.441436	0.563452
	H6105	H	0.502183	0.441020	0.561201
	H6106	H	0.394900	0.564810	0.557222
	H6107	H	0.395241	0.564772	0.558057
	H6108	H	0.502259	0.564602	0.561208
	H6109	H	0.509645	0.564602	0.563420
	H6110	H	0.521250	0.564485	0.561558
	H6111	H	0.392973	0.564488	0.558770
	H6112	H	0.484133	0.644189	0.582763
	H6113	H	0.482430	0.863683	0.582551
	H6114	H	0.482354	0.142418	0.582526
	H6115	H	0.483787	0.362275	0.582752
	H6116	H	0.427253	0.643901	0.518893
	H6117	H	0.481838	0.643224	0.519240
	H6118	H	0.481141	0.863105	0.519312
	H6119	H	0.426470	0.863651	0.518758
	H6120	H	0.485661	0.643204	0.534954
	H6121	H	0.485029	0.863130	0.534981
	H6122	H	0.478522	0.644789	0.598271
	H6123	H	0.476810	0.864011	0.598074
	H6124	H	0.434612	0.441406	0.492225
	H6125	H	0.465785	0.440881	0.623831
	H6126	H	0.454789	0.441452	0.486810
	H6127	H	0.470967	0.441324	0.489935
	H6128	H	0.445933	0.440535	0.615177
	H6129	H	0.459852	0.440752	0.616449
	H6130	H	0.465797	0.564391	0.623781
	H6131	H	0.434640	0.564788	0.492221
	H6132	H	0.459860	0.564499	0.616468
	H6133	H	0.445993	0.564380	0.615138
	H6134	H	0.470921	0.564540	0.489973
	H6135	H	0.454577	0.565026	0.486854
	H6136	H	0.476705	0.141753	0.598040
	H6137	H	0.478243	0.361668	0.598256
	H6138	H	0.460120	0.064762	0.492012
	H6139	H	0.452132	0.064870	0.491417
	H6140	H	0.464065	0.064522	0.496167
	H6141	H	0.422086	0.861895	0.597595
	H6142	H	0.424074	0.642146	0.597394
	H6143	H	0.423972	0.363684	0.597495
	H6144	H	0.421752	0.144196	0.597676
	H6145	H	0.426512	0.142694	0.518750
	H6146	H	0.481223	0.142759	0.519321
	H6147	H	0.481579	0.362308	0.519333
	H6148	H	0.427376	0.362116	0.518911
	H6149	H	0.485030	0.142768	0.535019
	H6150	H	0.485321	0.362385	0.535003
	H6151	H	0.447904	0.064362	0.613844
	H6152	H	0.433165	0.063901	0.616813
	H6153	H	0.432276	0.064049	0.625813
	H6154	H	0.452104	0.941638	0.491423
	H6155	H	0.460127	0.941633	0.492056
	H6156	H	0.463987	0.941161	0.496182
	H6157	H	0.448058	0.940638	0.613845
	H6158	H	0.433231	0.940928	0.616804
	H6159	H	0.432291	0.941079	0.625771
	Zn6160	Zn	0.392572	0.680345	0.557741
	Zn6161	Zn	0.392145	0.825351	0.557769
	Zn6162	Zn	0.392187	0.180325	0.557740
	Zn6163	Zn	0.392582	0.325354	0.557768
	Zn6164	Zn	0.449739	0.680295	0.621704
	Zn6165	Zn	0.449001	0.825173	0.621679
	Zn6166	Zn	0.448981	0.180296	0.621691
	Zn6167	Zn	0.449785	0.325049	0.621720
	C6168	C	0.489320	0.753241	0.545311
	C6169	C	0.415244	0.753578	0.571499
	C6170	C	0.419236	0.753096	0.580871
	C6171	C	0.420729	0.690661	0.585254
	C6172	C	0.419617	0.814997	0.585369
	C6173	C	0.415213	0.252278	0.571545
	C6174	C	0.419128	0.252867	0.580922
	C6175	C	0.419440	0.191087	0.585431
	C6176	C	0.420642	0.315208	0.585324
	C6177	C	0.416105	0.753885	0.544553
	C6178	C	0.421315	0.754023	0.535345
	C6179	C	0.422473	0.816114	0.530882
	C6180	C	0.422949	0.691747	0.530964
	C6181	C	0.415960	0.251822	0.544504
	C6182	C	0.421168	0.251862	0.535312
	C6183	C	0.423011	0.314075	0.530957
	C6184	C	0.422517	0.189956	0.530866
	C6185	C	0.512335	0.043430	0.560600
	C6186	C	0.512314	0.962604	0.560591
	C6187	C	0.390433	0.043217	0.555669
	C6188	C	0.390457	0.962358	0.555666
	C6189	C	0.388633	0.043134	0.559344
	C6190	C	0.388598	0.962502	0.559341
	C6191	C	0.394428	0.462543	0.557668
	C6192	C	0.519125	0.462583	0.559579
	C6193	C	0.507490	0.462386	0.561495
	C6194	C	0.394449	0.543401	0.557663
	C6195	C	0.507499	0.543137	0.561507
	C6196	C	0.519124	0.543558	0.559598
	C6197	C	0.488458	0.753450	0.572468
	C6198	C	0.488438	0.252695	0.572468
	C6199	C	0.483414	0.753900	0.581686
	C6200	C	0.482405	0.691964	0.586145
	C6201	C	0.481480	0.816085	0.586037
	C6202	C	0.483300	0.252369	0.581676
	C6203	C	0.481400	0.190051	0.586019
	C6204	C	0.482205	0.314349	0.586148
	C6205	C	0.489080	0.252613	0.545360
	C6206	C	0.477424	0.753170	0.508964
	C6207	C	0.431724	0.753365	0.508620
	C6208	C	0.426853	0.751464	0.607840
	C6209	C	0.484585	0.691002	0.531465
	C6210	C	0.484197	0.815255	0.531493
	C6211	C	0.481461	0.753195	0.518333
	C6212	C	0.427060	0.753679	0.517891
	C6213	C	0.425905	0.691614	0.522332
	C6214	C	0.482631	0.690955	0.522755
	C6215	C	0.482197	0.815355	0.522787
	C6216	C	0.425428	0.816019	0.522254
	C6217	C	0.485323	0.753163	0.535936
	C6218	C	0.472526	0.754498	0.608340
	C6219	C	0.479414	0.692267	0.594767
	C6220	C	0.478472	0.816342	0.594659
	C6221	C	0.477477	0.754428	0.599119
	C6222	C	0.458085	0.462302	0.624734
	C6223	C	0.460677	0.462629	0.490181
	C6224	C	0.452065	0.462008	0.617357
	C6225	C	0.458108	0.542993	0.624741
	C6226	C	0.452077	0.543018	0.617341
	C6227	C	0.460651	0.543470	0.490191
	C6228	C	0.472493	0.251423	0.608336
	C6229	C	0.478397	0.189655	0.594640
	C6230	C	0.479237	0.314037	0.594768
	C6231	C	0.477393	0.251715	0.599106
	C6232	C	0.455747	0.043384	0.492638
	C6233	C	0.477358	0.252570	0.509002
	C6234	C	0.431736	0.252559	0.508606
	C6235	C	0.426774	0.254393	0.607898
	C6236	C	0.484209	0.190476	0.531538
	C6237	C	0.484422	0.314651	0.531528
	C6238	C	0.481428	0.252482	0.518383
	C6239	C	0.427037	0.252344	0.517867
	C6240	C	0.422982	0.751979	0.598461
	C6241	C	0.421555	0.814419	0.594074
	C6242	C	0.422654	0.690096	0.593963
	C6243	C	0.422889	0.254004	0.598521
	C6244	C	0.422608	0.315866	0.594035
	C6245	C	0.421372	0.191655	0.594137
	C6246	C	0.425453	0.190217	0.522239
	C6247	C	0.482255	0.190359	0.522825
	C6248	C	0.482453	0.314641	0.522822
	C6249	C	0.425942	0.314321	0.522327
	C6250	C	0.485291	0.252633	0.535989
	C6251	C	0.442769	0.042963	0.616998
	C6252	C	0.459676	0.043442	0.496803
	C6253	C	0.455724	0.962710	0.492646
	C6254	C	0.442811	0.962110	0.617004
	C6255	C	0.459634	0.962581	0.496809
	N6256	N	0.392261	0.070103	0.557738
	N6257	N	0.392222	0.935593	0.557757
	N6258	N	0.392717	0.435542	0.557735
	N6259	N	0.392714	0.570094	0.557750
	N6260	N	0.449718	0.435277	0.621697
	N6261	N	0.449763	0.569871	0.621701
	N6262	N	0.448973	0.070041	0.621698
	N6263	N	0.449003	0.935472	0.621701
	O6264	O	0.484369	0.693240	0.675504
	O6265	O	0.483662	0.809927	0.675656
	O6266	O	0.407430	0.693698	0.694492
	O6267	O	0.407361	0.810631	0.694517
	O6268	O	0.407412	0.194398	0.694517
	O6269	O	0.407435	0.311336	0.694446
	O6270	O	0.407625	0.693496	0.674404
	O6271	O	0.407684	0.810267	0.674356
	O6272	O	0.407727	0.194618	0.674373
	O6273	O	0.407790	0.311285	0.674428
	O6274	O	0.483778	0.693157	0.695727
	O6275	O	0.483284	0.809687	0.695668
	O6276	O	0.483342	0.195416	0.695658
	O6277	O	0.483852	0.312167	0.695747
	O6278	O	0.483615	0.195074	0.675609
	O6279	O	0.484267	0.311838	0.675520
	O6280	O	0.470081	0.695867	0.631937
	O6281	O	0.428999	0.692461	0.631540
	O6282	O	0.462802	0.694706	0.738613
	O6283	O	0.462437	0.811419	0.738587
	O6284	O	0.421637	0.693493	0.738102
	O6285	O	0.421526	0.810172	0.738097
	O6286	O	0.428284	0.809143	0.631460
	O6287	O	0.469348	0.812623	0.632053
	O6288	O	0.469171	0.193196	0.632011
	O6289	O	0.428190	0.195749	0.631442
	O6290	O	0.462522	0.194178	0.738595
	O6291	O	0.462725	0.310947	0.738606
	O6292	O	0.421549	0.194772	0.738090
	O6293	O	0.421724	0.311528	0.738095
	O6294	O	0.428933	0.312656	0.631547
	O6295	O	0.469854	0.309956	0.631957
	H6296	H	0.413418	0.642124	0.708423
	H6297	H	0.412423	0.861934	0.708449
	H6298	H	0.412593	0.143172	0.708483
	H6299	H	0.413405	0.363118	0.708414
	H6300	H	0.414721	0.861100	0.660617
	H6301	H	0.415786	0.641525	0.660760
	H6302	H	0.415692	0.363366	0.660767
	H6303	H	0.414762	0.143621	0.660581
	H6304	H	0.521332	0.064919	0.686000
	H6305	H	0.515114	0.064323	0.680671
	H6306	H	0.515151	0.941505	0.680678
	H6307	H	0.521331	0.941361	0.686027
	H6308	H	0.509772	0.065010	0.692404
	H6309	H	0.509788	0.941523	0.692450
	H6310	H	0.395511	0.064469	0.688034
	H6311	H	0.395581	0.940735	0.688015
	H6312	H	0.399804	0.063902	0.684244
	H6313	H	0.399792	0.941112	0.684216
	H6314	H	0.391199	0.064184	0.679584
	H6315	H	0.391276	0.941350	0.679571
	H6316	H	0.384127	0.440914	0.684066
	H6317	H	0.384944	0.441048	0.684912
	H6318	H	0.386178	0.440781	0.683129
	H6319	H	0.500470	0.441289	0.688345
	H6320	H	0.496937	0.441481	0.685254
	H6321	H	0.500665	0.440947	0.683290
	H6322	H	0.384924	0.564159	0.684924
	H6323	H	0.384238	0.564632	0.684054
	H6324	H	0.500698	0.565197	0.683289
	H6325	H	0.497047	0.564501	0.685225
	H6326	H	0.500491	0.564411	0.688351
	H6327	H	0.386362	0.564625	0.683156
	H6328	H	0.476815	0.642401	0.709506
	H6329	H	0.475369	0.861829	0.709320
	H6330	H	0.475444	0.143626	0.709301
	H6331	H	0.476381	0.363184	0.709486
	H6332	H	0.421467	0.641124	0.645237
	H6333	H	0.476193	0.643660	0.645748
	H6334	H	0.474411	0.863374	0.646078
	H6335	H	0.420332	0.860663	0.645098
	H6336	H	0.479301	0.642338	0.661468
	H6337	H	0.477500	0.862066	0.661763
	H6338	H	0.471218	0.643077	0.725040
	H6339	H	0.469779	0.862426	0.724843
	H6340	H	0.456342	0.440951	0.627856
	H6341	H	0.454686	0.440935	0.743506
	H6342	H	0.437388	0.440538	0.626079
	H6343	H	0.433035	0.440890	0.620753
	H6344	H	0.424698	0.440618	0.746317
	H6345	H	0.434511	0.440510	0.741878
	H6346	H	0.454829	0.563961	0.743498
	H6347	H	0.456336	0.564253	0.627911
	H6348	H	0.434456	0.564193	0.741842
	H6349	H	0.424695	0.564311	0.746286
	H6350	H	0.432989	0.564065	0.620711
	H6351	H	0.437298	0.564191	0.626089
	H6352	H	0.469937	0.143088	0.724846
	H6353	H	0.470858	0.362397	0.724969
	H6354	H	0.466642	0.064514	0.625417
	H6355	H	0.467314	0.064521	0.618814
	H6356	H	0.446396	0.064398	0.629457
	H6357	H	0.415476	0.861751	0.724162
	H6358	H	0.416484	0.642031	0.724123
	H6359	H	0.416395	0.363073	0.724135
	H6360	H	0.415629	0.143459	0.724185
	H6361	H	0.420172	0.144157	0.645070
	H6362	H	0.474598	0.142241	0.646023
	H6363	H	0.475900	0.362212	0.645820
	H6364	H	0.421220	0.363905	0.645231
	H6365	H	0.477759	0.143296	0.661702
	H6366	H	0.479130	0.363120	0.661519
	H6367	H	0.438619	0.064468	0.747149
	H6368	H	0.437543	0.064572	0.748538
	H6369	H	0.440843	0.064160	0.750038
	H6370	H	0.467324	0.941256	0.618835
	H6371	H	0.466669	0.941195	0.625434
	H6372	H	0.446410	0.940684	0.629446
	H6373	H	0.438641	0.941281	0.747139
	H6374	H	0.437524	0.941057	0.748527
	H6375	H	0.440734	0.940731	0.750032
	Zn6376	Zn	0.386956	0.680063	0.684205
	Zn6377	Zn	0.387319	0.825139	0.684234
	Zn6378	Zn	0.387216	0.180126	0.684235
	Zn6379	Zn	0.386959	0.325430	0.684212
	Zn6380	Zn	0.441935	0.680097	0.748381
	Zn6381	Zn	0.441741	0.825186	0.748388
	Zn6382	Zn	0.441812	0.180173	0.748385
	Zn6383	Zn	0.442016	0.325304	0.748338
	C6384	C	0.481945	0.751723	0.671989
	C6385	C	0.409451	0.752107	0.698088
	C6386	C	0.412874	0.752082	0.707490
	C6387	C	0.413896	0.689809	0.711926
	C6388	C	0.413319	0.814225	0.711934
	C6389	C	0.409507	0.253019	0.698059
	C6390	C	0.413055	0.253192	0.707463
	C6391	C	0.413520	0.191047	0.711943
	C6392	C	0.413928	0.315370	0.711910
	C6393	C	0.410230	0.751734	0.670881
	C6394	C	0.415107	0.751340	0.661647
	C6395	C	0.416263	0.813295	0.657202
	C6396	C	0.416816	0.689139	0.657278
	C6397	C	0.410261	0.253089	0.670883
	C6398	C	0.415168	0.253517	0.661646
	C6399	C	0.416801	0.315829	0.657280
	C6400	C	0.416274	0.191526	0.657188
	C6401	C	0.514443	0.043488	0.684001
	C6402	C	0.514451	0.962703	0.683997
	C6403	C	0.394931	0.043018	0.685637
	C6404	C	0.394919	0.962220	0.685636
	C6405	C	0.386357	0.043020	0.680937
	C6406	C	0.386347	0.962110	0.680943
	C6407	C	0.385165	0.462238	0.684407
	C6408	C	0.503737	0.462377	0.687809
	C6409	C	0.500226	0.462519	0.684695
	C6410	C	0.385193	0.543003	0.684412
	C6411	C	0.500316	0.543510	0.684690
	C6412	C	0.503774	0.543284	0.687802
	C6413	C	0.480975	0.751447	0.699217
	C6414	C	0.481074	0.253730	0.699204
	C6415	C	0.476132	0.751959	0.708449
	C6416	C	0.475119	0.690151	0.712913
	C6417	C	0.474303	0.814192	0.712815
	C6418	C	0.476155	0.253340	0.708422
	C6419	C	0.474494	0.191140	0.712790
	C6420	C	0.475016	0.315230	0.712881
	C6421	C	0.481908	0.253379	0.671975
	C6422	C	0.471803	0.754129	0.635581
	C6423	C	0.425981	0.750747	0.634992
	C6424	C	0.419480	0.751782	0.734507
	C6425	C	0.478144	0.690307	0.658050
	C6426	C	0.477152	0.814580	0.658224
	C6427	C	0.475314	0.753529	0.644972
	C6428	C	0.420952	0.750802	0.644209
	C6429	C	0.419795	0.688853	0.648651
	C6430	C	0.476523	0.690998	0.649325
	C6431	C	0.475533	0.815338	0.649508
	C6432	C	0.419218	0.813081	0.648576
	C6433	C	0.478399	0.752024	0.662590
	C6434	C	0.465271	0.753102	0.735100
	C6435	C	0.472147	0.690554	0.721535
	C6436	C	0.471332	0.814597	0.721435
	C6437	C	0.470286	0.752754	0.725893
	C6438	C	0.453268	0.462299	0.746872
	C6439	C	0.439022	0.462065	0.622955
	C6440	C	0.432833	0.461991	0.745221
	C6441	C	0.453278	0.542933	0.746866
	C6442	C	0.432810	0.542993	0.745206
	C6443	C	0.438999	0.542929	0.622958
	C6444	C	0.465245	0.252538	0.735099
	C6445	C	0.471498	0.190795	0.721416
	C6446	C	0.471998	0.314832	0.721499
	C6447	C	0.470368	0.252623	0.725878
	C6448	C	0.462225	0.043114	0.622010
	C6449	C	0.471653	0.251583	0.635574
	C6450	C	0.425935	0.254201	0.634985
	C6451	C	0.419561	0.253179	0.734493
	C6452	C	0.477191	0.190816	0.658179
	C6453	C	0.478008	0.315158	0.658068
	C6454	C	0.475254	0.252195	0.644965
	C6455	C	0.420932	0.254101	0.644207
	C6456	C	0.415878	0.751883	0.725107
	C6457	C	0.414891	0.814103	0.720655
	C6458	C	0.415509	0.689755	0.720641
	C6459	C	0.416025	0.253275	0.725092
	C6460	C	0.415483	0.315430	0.720634
	C6461	C	0.415070	0.191054	0.720665
	C6462	C	0.419213	0.191833	0.648563
	C6463	C	0.475613	0.190246	0.649462
	C6464	C	0.476393	0.314648	0.649352
	C6465	C	0.419790	0.316119	0.648655
	C6466	C	0.478351	0.253260	0.662582
	C6467	C	0.439043	0.043030	0.747987
	C6468	C	0.441881	0.043092	0.626059
	C6469	C	0.462223	0.962392	0.622016
	C6470	C	0.439020	0.962219	0.747985
	C6471	C	0.441873	0.962207	0.626066
	N6472	N	0.387253	0.069793	0.684247
	N6473	N	0.387241	0.935222	0.684225
	N6474	N	0.386902	0.435445	0.684200
	N6475	N	0.386893	0.569972	0.684215
	N6476	N	0.441986	0.435375	0.748349
	N6477	N	0.441949	0.569887	0.748326
	N6478	N	0.441809	0.069841	0.748362
	N6479	N	0.441802	0.935286	0.748374
	O6480	O	0.478577	0.694106	0.802110
	O6481	O	0.478213	0.810889	0.802189
	O6482	O	0.399325	0.694386	0.821177
	O6483	O	0.399783	0.811184	0.821068
	O6484	O	0.399753	0.194801	0.821033
	O6485	O	0.399317	0.311577	0.821135
	O6486	O	0.400056	0.693865	0.801090
	O6487	O	0.400078	0.810666	0.801078
	O6488	O	0.400036	0.195544	0.801094
	O6489	O	0.399846	0.312341	0.801086
	O6490	O	0.478003	0.694188	0.822081
	O6491	O	0.478127	0.810946	0.822206
	O6492	O	0.478077	0.194856	0.822141
	O6493	O	0.478054	0.311611	0.822126
	O6494	O	0.478219	0.194830	0.802167
	O6495	O	0.478472	0.311627	0.802164
	O6496	O	0.462394	0.694507	0.758582
	O6497	O	0.421416	0.693585	0.758233
	O6498	O	0.456438	0.692898	0.865002
	O6499	O	0.456900	0.809938	0.865028
	O6500	O	0.415445	0.695869	0.864644
	O6501	O	0.415976	0.812764	0.864598
	O6502	O	0.421123	0.810372	0.758176
	O6503	O	0.461988	0.811240	0.758682
	O6504	O	0.461804	0.193933	0.758693
	O6505	O	0.421130	0.195104	0.758198
	O6506	O	0.456943	0.196077	0.865006
	O6507	O	0.456528	0.312865	0.865004
	O6508	O	0.416000	0.192758	0.864619
	O6509	O	0.415371	0.309553	0.864643
	O6510	O	0.421281	0.311916	0.758177
	O6511	O	0.462419	0.310560	0.758600
	H6512	H	0.405264	0.643713	0.835112
	H6513	H	0.406258	0.863353	0.834983
	H6514	H	0.406210	0.142343	0.834985
	H6515	H	0.405491	0.362122	0.835105
	H6516	H	0.408027	0.861897	0.787405
	H6517	H	0.408036	0.642208	0.787447
	H6518	H	0.407789	0.363725	0.787412
	H6519	H	0.407986	0.143961	0.787427
	H6520	H	0.483302	0.064741	0.814494
	H6521	H	0.493225	0.064531	0.818524
	H6522	H	0.493244	0.941079	0.818523
	H6523	H	0.483275	0.941688	0.814485
	H6524	H	0.488312	0.064849	0.807190
	H6525	H	0.488315	0.941705	0.807179
	H6526	H	0.391485	0.064655	0.806612
	H6527	H	0.391518	0.941405	0.806572
	H6528	H	0.378788	0.064335	0.804314
	H6529	H	0.378725	0.940808	0.804283
	H6530	H	0.363513	0.064437	0.808690
	H6531	H	0.363443	0.940450	0.808696
	H6532	H	0.397007	0.440664	0.809919
	H6533	H	0.388428	0.440871	0.804835
	H6534	H	0.387712	0.440750	0.817272
	H6535	H	0.507618	0.441077	0.811633
	H6536	H	0.503905	0.440975	0.815292
	H6537	H	0.496541	0.441084	0.815657
	H6538	H	0.388467	0.564222	0.804797
	H6539	H	0.397029	0.564738	0.809914
	H6540	H	0.496725	0.564541	0.815639
	H6541	H	0.503951	0.564526	0.815292
	H6542	H	0.507671	0.564505	0.811651
	H6543	H	0.387897	0.563905	0.817289
	H6544	H	0.469551	0.641785	0.835710
	H6545	H	0.470394	0.861718	0.835870
	H6546	H	0.470177	0.143817	0.835810
	H6547	H	0.469599	0.363434	0.835737
	H6548	H	0.413604	0.642011	0.771905
	H6549	H	0.468593	0.642932	0.772536
	H6550	H	0.468131	0.862318	0.772591
	H6551	H	0.413488	0.861749	0.771888
	H6552	H	0.472345	0.642653	0.788211
	H6553	H	0.471881	0.862195	0.788264
	H6554	H	0.463842	0.641341	0.851237
	H6555	H	0.464779	0.861250	0.851385
	H6556	H	0.459846	0.440739	0.749146
	H6557	H	0.437913	0.441426	0.870328
	H6558	H	0.446445	0.441006	0.755267
	H6559	H	0.431611	0.441301	0.754079
	H6560	H	0.424927	0.440874	0.876357
	H6561	H	0.425754	0.441265	0.872508
	H6562	H	0.437837	0.564831	0.870329
	H6563	H	0.459915	0.564133	0.749160
	H6564	H	0.425638	0.564870	0.872490
	H6565	H	0.424892	0.564843	0.876377
	H6566	H	0.431505	0.564416	0.754015
	H6567	H	0.446479	0.564656	0.755268
	H6568	H	0.464591	0.144296	0.851328
	H6569	H	0.463887	0.363934	0.851233
	H6570	H	0.445958	0.064499	0.747934
	H6571	H	0.443485	0.064593	0.746834
	H6572	H	0.444389	0.064075	0.749779
	H6573	H	0.410085	0.863954	0.850661
	H6574	H	0.409029	0.644506	0.850794
	H6575	H	0.409115	0.361303	0.850777
	H6576	H	0.409950	0.141613	0.850651
	H6577	H	0.413694	0.143848	0.771923
	H6578	H	0.468014	0.142856	0.772599
	H6579	H	0.468679	0.362464	0.772564
	H6580	H	0.413555	0.363661	0.771892
	H6581	H	0.471878	0.143132	0.788272
	H6582	H	0.472543	0.362670	0.788232
	H6583	H	0.446627	0.064314	0.873519
	H6584	H	0.440229	0.064907	0.870969
	H6585	H	0.428453	0.064765	0.872110
	H6586	H	0.443603	0.940984	0.746840
	H6587	H	0.446021	0.940644	0.747928
	H6588	H	0.444335	0.940781	0.749768
	H6589	H	0.446589	0.941236	0.873452
	H6590	H	0.440274	0.941246	0.870930
	H6591	H	0.428430	0.941138	0.872110
	Zn6592	Zn	0.379179	0.679540	0.810857
	Zn6593	Zn	0.379234	0.825606	0.810840
	Zn6594	Zn	0.379322	0.179745	0.810825
	Zn6595	Zn	0.378997	0.325695	0.810872
	Zn6596	Zn	0.435814	0.680378	0.874874
	Zn6597	Zn	0.436536	0.825430	0.874861
	Zn6598	Zn	0.436588	0.180289	0.874872
	Zn6599	Zn	0.435854	0.325561	0.874884
	C6600	C	0.476122	0.752554	0.798577
	C6601	C	0.401844	0.752938	0.824691
	C6602	C	0.405830	0.753478	0.834074
	C6603	C	0.406477	0.691586	0.838558
	C6604	C	0.407004	0.815768	0.838484
	C6605	C	0.401829	0.253011	0.824658
	C6606	C	0.405824	0.252296	0.834055
	C6607	C	0.406970	0.189978	0.838488
	C6608	C	0.406503	0.314186	0.838544
	C6609	C	0.402688	0.752228	0.797592
	C6610	C	0.407784	0.752068	0.788367
	C6611	C	0.409244	0.814210	0.783958
	C6612	C	0.409288	0.689858	0.783976
	C6613	C	0.402619	0.253996	0.797596
	C6614	C	0.407875	0.253940	0.788380
	C6615	C	0.409248	0.316008	0.783961
	C6616	C	0.409344	0.191738	0.783975
	C6617	C	0.491139	0.043315	0.815424
	C6618	C	0.491115	0.962524	0.815418
	C6619	C	0.383581	0.043069	0.806864
	C6620	C	0.383574	0.962348	0.806860
	C6621	C	0.368296	0.043101	0.811276
	C6622	C	0.368263	0.962167	0.811288
	C6623	C	0.389091	0.462109	0.808307
	C6624	C	0.503706	0.462308	0.810969
	C6625	C	0.499950	0.462417	0.814661
	C6626	C	0.389107	0.543016	0.808286
	C6627	C	0.499987	0.543299	0.814656
	C6628	C	0.503755	0.543368	0.810962
	C6629	C	0.475355	0.752306	0.825635
	C6630	C	0.475372	0.253307	0.825631
	C6631	C	0.470183	0.751742	0.834845
	C6632	C	0.468421	0.689386	0.839205
	C6633	C	0.468911	0.813815	0.839288
	C6634	C	0.470202	0.253610	0.834840
	C6635	C	0.468821	0.191588	0.839243
	C6636	C	0.468485	0.315860	0.839207
	C6637	C	0.476203	0.253227	0.798580
	C6638	C	0.464472	0.752739	0.762210
	C6639	C	0.418667	0.751996	0.761699
	C6640	C	0.413464	0.754360	0.861051
	C6641	C	0.471299	0.690409	0.784736
	C6642	C	0.471065	0.814566	0.784775
	C6643	C	0.468378	0.752547	0.771591
	C6644	C	0.413679	0.751917	0.770934
	C6645	C	0.412308	0.689803	0.775348
	C6646	C	0.469385	0.690504	0.776025
	C6647	C	0.469138	0.814587	0.776066
	C6648	C	0.412242	0.814112	0.775336
	C6649	C	0.472119	0.752399	0.789200
	C6650	C	0.459253	0.751333	0.861525
	C6651	C	0.465346	0.689248	0.847827
	C6652	C	0.465856	0.813578	0.847910
	C6653	C	0.464124	0.751294	0.852277
	C6654	C	0.440277	0.462527	0.872365
	C6655	C	0.439825	0.462176	0.753009
	C6656	C	0.428098	0.462562	0.874534
	C6657	C	0.440269	0.543416	0.872353
	C6658	C	0.428057	0.543564	0.874554
	C6659	C	0.439787	0.543044	0.753002
	C6660	C	0.459235	0.254589	0.861489
	C6661	C	0.465804	0.191955	0.847866
	C6662	C	0.465418	0.316103	0.847823
	C6663	C	0.464167	0.254202	0.852265
	C6664	C	0.443956	0.043203	0.747630
	C6665	C	0.464354	0.252386	0.762228
	C6666	C	0.418717	0.253590	0.761693
	C6667	C	0.413500	0.251074	0.861045
	C6668	C	0.471052	0.190716	0.784770
	C6669	C	0.471468	0.314932	0.784757
	C6670	C	0.468358	0.252613	0.771591
	C6671	C	0.413795	0.253793	0.770921
	C6672	C	0.409631	0.754236	0.851670
	C6673	C	0.408956	0.816171	0.847193
	C6674	C	0.408435	0.691968	0.847269
	C6675	C	0.409574	0.251421	0.851666
	C6676	C	0.408405	0.313772	0.847262
	C6677	C	0.408887	0.189488	0.847202
	C6678	C	0.412369	0.191695	0.775350
	C6679	C	0.469019	0.190603	0.776063
	C6680	C	0.469442	0.314715	0.776049
	C6681	C	0.412284	0.315931	0.775334
	C6682	C	0.472185	0.252857	0.789207
	C6683	C	0.441662	0.043171	0.872922
	C6684	C	0.442408	0.043002	0.749511
	C6685	C	0.443984	0.962152	0.747636
	C6686	C	0.441655	0.962457	0.872892
	C6687	C	0.442383	0.962269	0.749514
	N6688	N	0.379302	0.069838	0.810845
	N6689	N	0.379234	0.935413	0.810845
	N6690	N	0.378976	0.435575	0.810879
	N6691	N	0.379036	0.569929	0.810886
	N6692	N	0.435891	0.435735	0.874842
	N6693	N	0.435859	0.570257	0.874866
	N6694	N	0.436671	0.070064	0.874886
	N6695	N	0.436657	0.935517	0.874866
	O6696	O	0.470215	0.694110	0.928800
	O6697	O	0.470417	0.810846	0.928751
	O6698	O	0.393827	0.694494	0.947669
	O6699	O	0.394015	0.811227	0.947632
	O6700	O	0.393897	0.194233	0.947667
	O6701	O	0.393797	0.310986	0.947696
	O6702	O	0.394279	0.694589	0.927481
	O6703	O	0.394357	0.811286	0.927507
	O6704	O	0.394150	0.194049	0.927513
	O6705	O	0.394168	0.310723	0.927458
	O6706	O	0.470031	0.694817	0.948971
	O6707	O	0.469869	0.811464	0.948892
	O6708	O	0.469823	0.194643	0.948884
	O6709	O	0.469776	0.311471	0.948910
	O6710	O	0.470178	0.195205	0.928763
	O6711	O	0.470411	0.312090	0.928790
	O6712	O	0.456016	0.693119	0.885199
	O6713	O	0.414969	0.695672	0.884554
	O6714	O	0.448607	0.695009	0.991756
	O6715	O	0.448797	0.811766	0.991810
	O6716	O	0.407715	0.694457	0.991318
	O6717	O	0.407980	0.811300	0.991257
	O6718	O	0.415792	0.812327	0.884653
	O6719	O	0.456697	0.809772	0.885153
	O6720	O	0.456745	0.196321	0.885128
	O6721	O	0.415613	0.192662	0.884681
	O6722	O	0.448866	0.194764	0.991760
	O6723	O	0.448605	0.311588	0.991774
	O6724	O	0.407850	0.194803	0.991304
	O6725	O	0.407696	0.311427	0.991288
	O6726	O	0.414962	0.309458	0.884543
	O6727	O	0.455948	0.312939	0.885270
	H6728	H	0.399140	0.643268	0.961584
	H6729	H	0.399461	0.863065	0.961635
	H6730	H	0.399558	0.143023	0.961668
	H6731	H	0.399207	0.362432	0.961646
	H6732	H	0.402214	0.863142	0.913875
	H6733	H	0.401586	0.643438	0.913705
	H6734	H	0.401326	0.361813	0.913666
	H6735	H	0.402312	0.142301	0.913942
	H6736	H	0.487142	0.064712	0.937809
	H6737	H	0.485849	0.064795	0.939227
	H6738	H	0.485960	0.941987	0.939246
	H6739	H	0.487135	0.941199	0.937784
	H6740	H	0.492289	0.064876	0.937398
	H6741	H	0.492306	0.941048	0.937434
	H6742	H	0.381386	0.064527	0.939555
	H6743	H	0.381510	0.941211	0.939488
	H6744	H	0.382891	0.064570	0.936497
	H6745	H	0.382843	0.940619	0.936455
	H6746	H	0.374593	0.064430	0.933661
	H6747	H	0.374651	0.940372	0.933638
	H6748	H	0.371049	0.440963	0.940618
	H6749	H	0.378421	0.441207	0.940398
	H6750	H	0.365104	0.440840	0.937303
	H6751	H	0.486801	0.441620	0.941423
	H6752	H	0.483661	0.440805	0.938477
	H6753	H	0.487199	0.440963	0.936657
	H6754	H	0.378461	0.564409	0.940361
	H6755	H	0.371061	0.564406	0.940609
	H6756	H	0.487133	0.564610	0.936634
	H6757	H	0.483646	0.564361	0.938454
	H6758	H	0.486717	0.565019	0.941391
	H6759	H	0.365102	0.564126	0.937333
	H6760	H	0.462060	0.643677	0.962603
	H6761	H	0.462597	0.863129	0.962651
	H6762	H	0.462321	0.143182	0.962579
	H6763	H	0.461959	0.363077	0.962567
	H6764	H	0.407218	0.644107	0.898191
	H6765	H	0.461650	0.641720	0.899143
	H6766	H	0.461953	0.861507	0.899059
	H6767	H	0.407832	0.863594	0.898345
	H6768	H	0.464527	0.642240	0.914856
	H6769	H	0.464755	0.862125	0.914759
	H6770	H	0.456316	0.643640	0.978112
	H6771	H	0.456838	0.863249	0.978157
	H6772	H	0.445935	0.441265	0.872616
	H6773	H	0.427797	0.441223	1.004046
	H6774	H	0.444793	0.441163	0.877893
	H6775	H	0.435928	0.441106	0.879431
	H6776	H	0.433712	0.441406	1.000482
	H6777	H	0.433948	0.441365	1.002577
	H6778	H	0.427898	0.564580	1.004145
	H6779	H	0.445822	0.564867	0.872605
	H6780	H	0.434140	0.564740	1.002583
	H6781	H	0.433769	0.565146	1.000454
	H6782	H	0.435987	0.564289	0.879506
	H6783	H	0.444859	0.564389	0.877894
	H6784	H	0.456733	0.143465	0.978090
	H6785	H	0.456438	0.363090	0.978076
	H6786	H	0.434975	0.064455	0.879039
	H6787	H	0.443522	0.064606	0.878162
	H6788	H	0.426051	0.064505	0.875557
	H6789	H	0.402375	0.862734	0.977345
	H6790	H	0.402082	0.642983	0.977291
	H6791	H	0.402053	0.362648	0.977319
	H6792	H	0.402353	0.143390	0.977379
	H6793	H	0.407914	0.141504	0.898422
	H6794	H	0.462165	0.144419	0.899087
	H6795	H	0.461629	0.364333	0.899207
	H6796	H	0.406894	0.361260	0.898177
	H6797	H	0.465050	0.144072	0.914795
	H6798	H	0.464610	0.363813	0.914904
	H6799	H	0.423369	0.064455	0.997198
	H6800	H	0.416690	0.064812	1.000067
	H6801	H	0.420942	0.064699	1.005265
	H6802	H	0.443585	0.941011	0.878136
	H6803	H	0.434909	0.940950	0.879010
	H6804	H	0.426176	0.941316	0.875539
	H6805	H	0.423389	0.941256	0.997208
	H6806	H	0.416687	0.941205	1.000090
	H6807	H	0.420922	0.941193	1.005247
	Zn6808	Zn	0.373770	0.680295	0.937364
	Zn6809	Zn	0.373735	0.825513	0.937323
	Zn6810	Zn	0.373739	0.179914	0.937349
	Zn6811	Zn	0.373847	0.325128	0.937386
	Zn6812	Zn	0.428140	0.680630	1.001612
	Zn6813	Zn	0.428036	0.825800	1.001584
	Zn6814	Zn	0.428089	0.180161	1.001574
	Zn6815	Zn	0.428003	0.325454	1.001581
	C6816	C	0.468222	0.752387	0.925182
	C6817	C	0.395943	0.752898	0.951253
	C6818	C	0.399415	0.753107	0.960650
	C6819	C	0.399978	0.690951	0.965089
	C6820	C	0.400141	0.815201	0.965114
	C6821	C	0.395884	0.252560	0.951280
	C6822	C	0.399314	0.252615	0.960690
	C6823	C	0.400120	0.190761	0.965156
	C6824	C	0.399920	0.314727	0.965133
	C6825	C	0.396892	0.752958	0.923991
	C6826	C	0.401679	0.753198	0.914764
	C6827	C	0.403343	0.815493	0.910402
	C6828	C	0.403009	0.691317	0.910302
	C6829	C	0.396744	0.252310	0.923975
	C6830	C	0.401709	0.252134	0.914754
	C6831	C	0.402841	0.313993	0.910273
	C6832	C	0.403370	0.189774	0.910429
	C6833	C	0.487561	0.043480	0.938663
	C6834	C	0.487576	0.962829	0.938662
	C6835	C	0.379932	0.043087	0.937840
	C6836	C	0.379990	0.962318	0.937818
	C6837	C	0.371707	0.043022	0.934975
	C6838	C	0.371697	0.962289	0.934970
	C6839	C	0.374551	0.462327	0.939671
	C6840	C	0.489888	0.462795	0.940924
	C6841	C	0.486739	0.462325	0.937956
	C6842	C	0.374540	0.543202	0.939660
	C6843	C	0.486721	0.543258	0.937947
	C6844	C	0.489819	0.543610	0.940918
	C6845	C	0.467404	0.753276	0.952439
	C6846	C	0.467241	0.253022	0.952405
	C6847	C	0.462451	0.753528	0.961664
	C6848	C	0.460841	0.691385	0.966056
	C6849	C	0.461127	0.815509	0.966084
	C6850	C	0.462336	0.253107	0.961625
	C6851	C	0.461018	0.190962	0.966025
	C6852	C	0.460824	0.315318	0.966028
	C6853	C	0.468215	0.253729	0.925188
	C6854	C	0.458457	0.751441	0.888771
	C6855	C	0.412682	0.753999	0.888096
	C6856	C	0.405744	0.752769	0.987699
	C6857	C	0.463879	0.689931	0.911357
	C6858	C	0.464013	0.814192	0.911302
	C6859	C	0.461877	0.751660	0.898175
	C6860	C	0.407617	0.753889	0.897327
	C6861	C	0.405947	0.691637	0.901677
	C6862	C	0.462412	0.689591	0.902633
	C6863	C	0.462581	0.813930	0.902582
	C6864	C	0.406329	0.815817	0.901776
	C6865	C	0.464718	0.752193	0.915794
	C6866	C	0.451340	0.753447	0.988286
	C6867	C	0.457770	0.691332	0.974669
	C6868	C	0.458054	0.815522	0.974698
	C6869	C	0.456415	0.753432	0.979082
	C6870	C	0.426178	0.462495	1.003051
	C6871	C	0.439168	0.462496	0.877668
	C6872	C	0.432320	0.462668	1.001533
	C6873	C	0.426237	0.543264	1.003082
	C6874	C	0.432395	0.543522	1.001534
	C6875	C	0.439193	0.543103	0.877693
	C6876	C	0.451401	0.253265	0.988278
	C6877	C	0.458051	0.191121	0.974647
	C6878	C	0.457856	0.315361	0.974648
	C6879	C	0.456513	0.253263	0.979055
	C6880	C	0.438553	0.043270	0.877623
	C6881	C	0.458404	0.254498	0.888802
	C6882	C	0.412637	0.251141	0.888101
	C6883	C	0.405662	0.253049	0.987706
	C6884	C	0.464221	0.191851	0.911317
	C6885	C	0.463975	0.316217	0.911385
	C6886	C	0.461877	0.254369	0.898192
	C6887	C	0.407627	0.251257	0.897319
	C6888	C	0.402200	0.752838	0.978285
	C6889	C	0.401589	0.815015	0.973844
	C6890	C	0.401420	0.690810	0.973813
	C6891	C	0.402146	0.252971	0.978325
	C6892	C	0.401375	0.314958	0.973853
	C6893	C	0.401621	0.190879	0.973879
	C6894	C	0.406378	0.189407	0.901808
	C6895	C	0.462725	0.192062	0.902602
	C6896	C	0.462454	0.316466	0.902672
	C6897	C	0.405826	0.313558	0.901656
	C6898	C	0.464761	0.253919	0.915798
	C6899	C	0.422114	0.043334	0.999401
	C6900	C	0.429763	0.043396	0.874104
	C6901	C	0.438565	0.962241	0.877601
	C6902	C	0.422125	0.962566	0.999411
	C6903	C	0.429728	0.962609	0.874087
	N6904	N	0.373767	0.069956	0.937341
	N6905	N	0.373822	0.935539	0.937288
	N6906	N	0.373905	0.435409	0.937363
	N6907	N	0.373903	0.570013	0.937348
	N6908	N	0.428064	0.435743	1.001569
	N6909	N	0.428127	0.570345	1.001593
	N6910	N	0.428067	0.070240	1.001566
	N6911	N	0.428053	0.935794	1.001581
	O6912	O	0.576511	0.694554	0.057073
	O6913	O	0.576715	0.811436	0.057011
	O6914	O	0.505900	0.694060	0.075756
	O6915	O	0.505905	0.810682	0.075757
	O6916	O	0.506028	0.194699	0.075756
	O6917	O	0.506004	0.311571	0.075777
	O6918	O	0.505752	0.694263	0.055587
	O6919	O	0.506233	0.810979	0.055687
	O6920	O	0.506164	0.194911	0.055663
	O6921	O	0.505884	0.311479	0.055596
	O6922	O	0.579086	0.694666	0.078323
	O6923	O	0.579129	0.811127	0.078305
	O6924	O	0.578997	0.194725	0.078310
	O6925	O	0.578954	0.311342	0.078304
	O6926	O	0.576838	0.194975	0.057034
	O6927	O	0.576517	0.311991	0.057092
	O6928	O	0.568336	0.693443	0.013228
	O6929	O	0.527228	0.694900	0.012709
	O6930	O	0.555335	0.694658	0.120768
	O6931	O	0.555294	0.811344	0.120770
	O6932	O	0.514126	0.694152	0.119541
	O6933	O	0.514025	0.810972	0.119577
	O6934	O	0.527388	0.811636	0.012743
	O6935	O	0.568673	0.810375	0.013193
	O6936	O	0.568881	0.195670	0.013197
	O6937	O	0.527502	0.193946	0.012776
	O6938	O	0.555254	0.194548	0.120730
	O6939	O	0.555395	0.311351	0.120789
	O6940	O	0.514105	0.194719	0.119556
	O6941	O	0.514115	0.311497	0.119574
	O6942	O	0.527124	0.310938	0.012731
	O6943	O	0.568259	0.312413	0.013273
	H6944	H	0.510591	0.642593	0.089763
	H6945	H	0.510099	0.862290	0.089806
	H6946	H	0.510219	0.143135	0.089780
	H6947	H	0.510409	0.362916	0.089826
	H6948	H	0.513757	0.862824	0.041975
	H6949	H	0.512805	0.643345	0.041827
	H6950	H	0.512938	0.362645	0.041833
	H6951	H	0.513754	0.143058	0.041927
	H6952	H	0.591302	0.064785	0.066138
	H6953	H	0.589918	0.064606	0.067907
	H6954	H	0.589831	0.941458	0.067891
	H6955	H	0.591342	0.941349	0.066134
	H6956	H	0.597785	0.064984	0.065591
	H6957	H	0.597613	0.941266	0.065577
	H6958	H	0.485804	0.064324	0.070691
	H6959	H	0.485751	0.941434	0.070712
	H6960	H	0.495688	0.064586	0.068910
	H6961	H	0.495651	0.940874	0.068923
	H6962	H	0.496850	0.064605	0.063008
	H6963	H	0.496821	0.941179	0.063007
	H6964	H	0.482433	0.441443	0.061792
	H6965	H	0.476387	0.441122	0.063988
	H6966	H	0.493269	0.441471	0.063202
	H6967	H	0.594663	0.440960	0.068744
	H6968	H	0.592671	0.440974	0.067614
	H6969	H	0.593777	0.441621	0.066841
	H6970	H	0.476343	0.564808	0.063994
	H6971	H	0.482353	0.565062	0.061817
	H6972	H	0.593559	0.564432	0.066777
	H6973	H	0.592519	0.564542	0.067608
	H6974	H	0.594488	0.564425	0.068745
	H6975	H	0.493210	0.564789	0.063169
	H6976	H	0.572791	0.643704	0.092069
	H6977	H	0.573015	0.862664	0.092081
	H6978	H	0.572733	0.143411	0.092054
	H6979	H	0.572958	0.362679	0.092063
	H6980	H	0.518541	0.643448	0.026329
	H6981	H	0.572410	0.642132	0.027278
	H6982	H	0.573483	0.861812	0.027159
	H6983	H	0.519525	0.863180	0.026460
	H6984	H	0.573327	0.642595	0.043020
	H6985	H	0.574331	0.862494	0.042897
	H6986	H	0.565592	0.643794	0.107449
	H6987	H	0.565750	0.862790	0.107481
	H6988	H	0.535912	0.441333	0.008301
	H6989	H	0.533008	0.441352	0.126575
	H6990	H	0.530845	0.441277	0.000187
	H6991	H	0.541990	0.440667	-0.003944
	H6992	H	0.525132	0.441304	0.131905
	H6993	H	0.524423	0.440527	0.128909
	H6994	H	0.532859	0.564714	0.126547
	H6995	H	0.535938	0.564802	0.008326
	H6996	H	0.524394	0.564914	0.128900
	H6997	H	0.525110	0.564560	0.131907
	H6998	H	0.541916	0.564545	-0.003968
	H6999	H	0.530788	0.564165	0.000173
	H7000	H	0.565722	0.143688	0.107465
	H7001	H	0.565900	0.362615	0.107477
	H7002	H	0.548149	0.064990	0.000923
	H7003	H	0.544136	0.065237	0.001687
	H7004	H	0.553233	0.064636	0.002285
	H7005	H	0.510908	0.862045	0.105529
	H7006	H	0.511451	0.642634	0.105488
	H7007	H	0.511284	0.362702	0.105545
	H7008	H	0.511061	0.143161	0.105510
	H7009	H	0.519420	0.142809	0.026408
	H7010	H	0.573271	0.144114	0.027250
	H7011	H	0.572441	0.363641	0.027257
	H7012	H	0.518603	0.362410	0.026337
	H7013	H	0.574037	0.143834	0.042965
	H7014	H	0.573278	0.363552	0.043010
	H7015	H	0.526854	0.064737	0.129475
	H7016	H	0.527804	0.064791	0.131522
	H7017	H	0.534669	0.064754	0.132591
	H7018	H	0.544073	0.941647	0.001702
	H7019	H	0.548061	0.941636	0.000914
	H7020	H	0.553277	0.941516	0.002305
	H7021	H	0.526794	0.941192	0.129474
	H7022	H	0.527730	0.941150	0.131534
	H7023	H	0.534617	0.941437	0.132568
	Zn7024	Zn	0.485475	0.680804	0.065517
	Zn7025	Zn	0.485694	0.825517	0.065540
	Zn7026	Zn	0.485679	0.180363	0.065526
	Zn7027	Zn	0.485646	0.325133	0.065492
	Zn7028	Zn	0.533083	0.680244	0.130185
	Zn7029	Zn	0.532953	0.825261	0.130142
	Zn7030	Zn	0.533013	0.180164	0.130136
	Zn7031	Zn	0.533084	0.325453	0.130143
	C7032	C	0.575274	0.752898	0.053399
	C7033	C	0.507707	0.752364	0.079367
	C7034	C	0.510445	0.752434	0.088793
	C7035	C	0.510758	0.690282	0.093246
	C7036	C	0.510470	0.814477	0.093281
	C7037	C	0.507851	0.253102	0.079368
	C7038	C	0.510340	0.253066	0.088819
	C7039	C	0.510474	0.190862	0.093275
	C7040	C	0.510596	0.315194	0.093297
	C7041	C	0.508508	0.752702	0.052122
	C7042	C	0.513192	0.753086	0.042871
	C7043	C	0.514896	0.815250	0.038495
	C7044	C	0.514338	0.691090	0.038410
	C7045	C	0.508542	0.253111	0.052104
	C7046	C	0.513303	0.252864	0.042857
	C7047	C	0.514432	0.314890	0.038420
	C7048	C	0.514854	0.190731	0.038465
	C7049	C	0.591878	0.043471	0.067193
	C7050	C	0.591839	0.962646	0.067192
	C7051	C	0.489407	0.043484	0.068684
	C7052	C	0.489383	0.962541	0.068688
	C7053	C	0.490558	0.043250	0.062739
	C7054	C	0.490540	0.962534	0.062748
	C7055	C	0.481025	0.462520	0.063600
	C7056	C	0.595670	0.462652	0.068424
	C7057	C	0.593758	0.462569	0.067337
	C7058	C	0.480974	0.543596	0.063597
	C7059	C	0.593671	0.543326	0.067337
	C7060	C	0.595616	0.543425	0.068429
	C7061	C	0.577260	0.752937	0.081887
	C7062	C	0.577149	0.253020	0.081877
	C7063	C	0.572944	0.753154	0.091124
	C7064	C	0.571193	0.691313	0.095488
	C7065	C	0.571300	0.815116	0.095494
	C7066	C	0.572939	0.253125	0.091115
	C7067	C	0.571276	0.191064	0.095474
	C7068	C	0.571375	0.315147	0.095487
	C7069	C	0.575306	0.253581	0.053423
	C7070	C	0.570340	0.751907	0.016816
	C7071	C	0.524535	0.753213	0.016210
	C7072	C	0.512771	0.752613	0.115905
	C7073	C	0.573188	0.690221	0.039508
	C7074	C	0.573763	0.814588	0.039439
	C7075	C	0.572979	0.751972	0.026278
	C7076	C	0.519220	0.753300	0.025417
	C7077	C	0.517368	0.691186	0.029788
	C7078	C	0.572946	0.689923	0.030774
	C7079	C	0.573503	0.814339	0.030702
	C7080	C	0.517889	0.815382	0.029862
	C7081	C	0.573433	0.752619	0.043924
	C7082	C	0.558667	0.753025	0.117403
	C7083	C	0.567400	0.691310	0.104039
	C7084	C	0.567496	0.815188	0.104050
	C7085	C	0.565349	0.753243	0.108385
	C7086	C	0.535476	0.462566	0.128026
	C7087	C	0.539431	0.462409	-0.000623
	C7088	C	0.526890	0.462321	0.130341
	C7089	C	0.535448	0.543198	0.128006
	C7090	C	0.526873	0.543565	0.130342
	C7091	C	0.539439	0.543384	-0.000633
	C7092	C	0.558719	0.253059	0.117411
	C7093	C	0.567523	0.191162	0.104035
	C7094	C	0.567630	0.315101	0.104049
	C7095	C	0.565495	0.253147	0.108387
	C7096	C	0.546707	0.043556	0.001771
	C7097	C	0.570294	0.253956	0.016861
	C7098	C	0.524612	0.252430	0.016225
	C7099	C	0.512799	0.253152	0.115913
	C7100	C	0.573667	0.191570	0.039487
	C7101	C	0.573196	0.315890	0.039509
	C7102	C	0.572932	0.253782	0.026314
	C7103	C	0.519305	0.252514	0.025424
	C7104	C	0.510914	0.752357	0.106440
	C7105	C	0.510790	0.814473	0.102009
	C7106	C	0.511090	0.690252	0.101979
	C7107	C	0.510916	0.253037	0.106455
	C7108	C	0.510918	0.315156	0.102029
	C7109	C	0.510821	0.190873	0.102010
	C7110	C	0.517918	0.190536	0.029845
	C7111	C	0.573331	0.191626	0.030756
	C7112	C	0.572880	0.315964	0.030767
	C7113	C	0.517489	0.314721	0.029801
	C7114	C	0.573378	0.253656	0.043964
	C7115	C	0.528721	0.043350	0.130425
	C7116	C	0.551881	0.043529	0.003130
	C7117	C	0.546678	0.962755	0.001757
	C7118	C	0.528675	0.962509	0.130420
	C7119	C	0.551868	0.962655	0.003141
	N7120	N	0.485637	0.070313	0.065550
	N7121	N	0.485613	0.935847	0.065568
	N7122	N	0.485561	0.435592	0.065509
	N7123	N	0.485490	0.570264	0.065508
	N7124	N	0.532898	0.435783	0.130168
	N7125	N	0.532886	0.570278	0.130143
	N7126	N	0.532941	0.070229	0.130130
	N7127	N	0.532837	0.935668	0.130147
	O7128	O	0.632646	0.694984	0.171848
	O7129	O	0.632426	0.811256	0.171941
	O7130	O	0.495333	0.695359	0.201242
	O7131	O	0.494967	0.811810	0.201307
	O7132	O	0.495138	0.195172	0.201284
	O7133	O	0.495209	0.311476	0.201208
	O7134	O	0.492372	0.694694	0.183211
	O7135	O	0.492260	0.811476	0.183183
	O7136	O	0.492437	0.194700	0.183215
	O7137	O	0.492404	0.311433	0.183217
	O7138	O	0.635277	0.694455	0.190025
	O7139	O	0.635084	0.811315	0.189993
	O7140	O	0.635193	0.194969	0.189969
	O7141	O	0.635456	0.311965	0.190017
	O7142	O	0.632512	0.195452	0.171928
	O7143	O	0.632538	0.311778	0.171928
	O7144	O	0.558104	0.695175	0.138787
	O7145	O	0.516583	0.694644	0.140815
	O7146	O	0.611336	0.694839	0.232441
	O7147	O	0.611219	0.811338	0.232378
	O7148	O	0.569608	0.695508	0.234375
	O7149	O	0.569679	0.811946	0.234399
	O7150	O	0.516293	0.811269	0.140806
	O7151	O	0.557927	0.811442	0.138848
	O7152	O	0.557902	0.195191	0.138808
	O7153	O	0.516443	0.194940	0.140775
	O7154	O	0.611324	0.194994	0.232406
	O7155	O	0.611346	0.311433	0.232428
	O7156	O	0.569752	0.195157	0.234347
	O7157	O	0.569743	0.311548	0.234385
	O7158	O	0.516347	0.311666	0.140790
	O7159	O	0.558188	0.311500	0.138737
	H7160	H	0.519427	0.645445	0.211786
	H7161	H	0.519097	0.862176	0.211852
	H7162	H	0.518997	0.145505	0.211932
	H7163	H	0.519269	0.361860	0.211797
	H7164	H	0.502837	0.862735	0.169903
	H7165	H	0.503293	0.643709	0.169990
	H7166	H	0.503230	0.362697	0.169946
	H7167	H	0.502522	0.143457	0.169865
	H7168	H	0.650129	0.064683	0.184028
	H7169	H	0.659495	0.064686	0.185118
	H7170	H	0.659520	0.941400	0.185082
	H7171	H	0.650136	0.941472	0.183995
	H7172	H	0.646728	0.064953	0.178980
	H7173	H	0.646620	0.941812	0.178961
	H7174	H	0.466463	0.065219	0.196652
	H7175	H	0.466418	0.940950	0.196681
	H7176	H	0.475594	0.064401	0.196380
	H7177	H	0.475462	0.941730	0.196399
	H7178	H	0.480725	0.064807	0.191975
	H7179	H	0.480551	0.941592	0.191963
	H7180	H	0.484611	0.441572	0.193196
	H7181	H	0.480324	0.441512	0.188567
	H7182	H	0.473954	0.441549	0.198153
	H7183	H	0.664213	0.442048	0.183651
	H7184	H	0.652600	0.441772	0.183986
	H7185	H	0.647702	0.441873	0.181212
	H7186	H	0.480301	0.564707	0.188607
	H7187	H	0.484611	0.564760	0.193198
	H7188	H	0.647566	0.564900	0.181187
	H7189	H	0.652494	0.565186	0.183989
	H7190	H	0.664225	0.565383	0.183661
	H7191	H	0.473970	0.564108	0.198243
	H7192	H	0.625160	0.643255	0.203319
	H7193	H	0.624278	0.862479	0.203248
	H7194	H	0.624907	0.144176	0.203244
	H7195	H	0.624645	0.362749	0.203257
	H7196	H	0.510450	0.643632	0.154566
	H7197	H	0.582288	0.645280	0.149270
	H7198	H	0.581717	0.861520	0.149532
	H7199	H	0.509956	0.862401	0.154493
	H7200	H	0.608702	0.645059	0.161252
	H7201	H	0.608213	0.861504	0.161463
	H7202	H	0.617993	0.643165	0.218735
	H7203	H	0.617119	0.862562	0.218629
	H7204	H	0.539866	0.441499	0.127929
	H7205	H	0.594195	0.441314	0.242487
	H7206	H	0.540918	0.441278	0.131991
	H7207	H	0.534732	0.442071	0.133769
	H7208	H	0.593778	0.441726	0.243493
	H7209	H	0.593223	0.441310	0.243029
	H7210	H	0.594142	0.565153	0.242492
	H7211	H	0.539868	0.564459	0.127903
	H7212	H	0.593142	0.565159	0.242982
	H7213	H	0.593661	0.564885	0.243461
	H7214	H	0.534672	0.564581	0.133726
	H7215	H	0.540901	0.564643	0.132014
	H7216	H	0.617515	0.144038	0.218631
	H7217	H	0.617280	0.362536	0.218647
	H7218	H	0.537381	0.064515	0.128419
	H7219	H	0.532351	0.064664	0.127665
	H7220	H	0.538706	0.064341	0.131219
	H7221	H	0.545491	0.862102	0.223888
	H7222	H	0.545654	0.645906	0.223837
	H7223	H	0.545671	0.361919	0.223766
	H7224	H	0.545381	0.145297	0.223905
	H7225	H	0.509719	0.143561	0.154466
	H7226	H	0.581896	0.145254	0.149422
	H7227	H	0.582301	0.361547	0.149257
	H7228	H	0.510452	0.362526	0.154556
	H7229	H	0.608311	0.145639	0.161402
	H7230	H	0.608685	0.361358	0.161252
	H7231	H	0.583352	0.064574	0.243997
	H7232	H	0.589401	0.065002	0.247113
	H7233	H	0.602640	0.065078	0.246465
	H7234	H	0.532303	0.941079	0.127700
	H7235	H	0.537266	0.941140	0.128436
	H7236	H	0.538605	0.941355	0.131232
	H7237	H	0.583353	0.941264	0.244001
	H7238	H	0.589460	0.941561	0.247121
	H7239	H	0.602750	0.941645	0.246427
	Zn7240	Zn	0.470298	0.680258	0.192625
	Zn7241	Zn	0.470092	0.825574	0.192641
	Zn7242	Zn	0.470293	0.180507	0.192624
	Zn7243	Zn	0.470101	0.325820	0.192623
	Zn7244	Zn	0.594430	0.680519	0.243031
	Zn7245	Zn	0.594655	0.825676	0.243022
	Zn7246	Zn	0.594583	0.180493	0.243030
	Zn7247	Zn	0.594740	0.325802	0.243054
	C7248	C	0.626128	0.753138	0.169213
	C7249	C	0.501618	0.753707	0.203935
	C7250	C	0.517835	0.753840	0.211035
	C7251	C	0.525245	0.692633	0.214459
	C7252	C	0.525072	0.815120	0.214490
	C7253	C	0.501621	0.253451	0.203918
	C7254	C	0.517764	0.253716	0.211042
	C7255	C	0.524993	0.192446	0.214536
	C7256	C	0.525185	0.314970	0.214447
	C7257	C	0.495716	0.753080	0.179853
	C7258	C	0.502566	0.753179	0.170860
	C7259	C	0.504630	0.815132	0.166504
	C7260	C	0.504854	0.691179	0.166551
	C7261	C	0.495772	0.253106	0.179857
	C7262	C	0.502521	0.253089	0.170848
	C7263	C	0.504819	0.315048	0.166530
	C7264	C	0.504417	0.191086	0.166475
	C7265	C	0.655579	0.043743	0.183513
	C7266	C	0.655565	0.962890	0.183509
	C7267	C	0.470701	0.043472	0.195504
	C7268	C	0.470636	0.962616	0.195505
	C7269	C	0.475863	0.043603	0.191023
	C7270	C	0.475808	0.962747	0.191023
	C7271	C	0.479113	0.462606	0.191341
	C7272	C	0.663831	0.462990	0.181730
	C7273	C	0.652184	0.462938	0.182072
	C7274	C	0.479136	0.543384	0.191355
	C7275	C	0.652099	0.543687	0.182066
	C7276	C	0.663833	0.543815	0.181742
	C7277	C	0.631876	0.752892	0.193365
	C7278	C	0.631935	0.253457	0.193335
	C7279	C	0.625168	0.752878	0.202377
	C7280	C	0.623260	0.690820	0.206732
	C7281	C	0.622746	0.814931	0.206683
	C7282	C	0.625156	0.253477	0.202352
	C7283	C	0.623011	0.191498	0.206666
	C7284	C	0.622912	0.315372	0.206674
	C7285	C	0.626140	0.253612	0.169220
	C7286	C	0.564409	0.753350	0.141509
	C7287	C	0.514591	0.752946	0.144375
	C7288	C	0.563310	0.753823	0.231674
	C7289	C	0.602768	0.691980	0.158618
	C7290	C	0.602451	0.814594	0.158760
	C7291	C	0.580613	0.753383	0.148611
	C7292	C	0.510280	0.752970	0.153619
	C7293	C	0.508754	0.691073	0.158002
	C7294	C	0.588161	0.692170	0.151960
	C7295	C	0.587876	0.814565	0.152087
	C7296	C	0.508520	0.814984	0.157955
	C7297	C	0.610051	0.753217	0.162067
	C7298	C	0.613191	0.752992	0.228845
	C7299	C	0.619432	0.690763	0.215283
	C7300	C	0.618928	0.814903	0.215232
	C7301	C	0.617590	0.752844	0.219615
	C7302	C	0.594811	0.462746	0.242662
	C7303	C	0.536480	0.462793	0.132175
	C7304	C	0.593841	0.462820	0.243204
	C7305	C	0.594725	0.543603	0.242648
	C7306	C	0.593767	0.543644	0.243175
	C7307	C	0.536469	0.543539	0.132152
	C7308	C	0.613153	0.253258	0.228844
	C7309	C	0.619166	0.191484	0.215219
	C7310	C	0.619012	0.315208	0.215229
	C7311	C	0.617449	0.253350	0.219603
	C7312	C	0.534249	0.043328	0.128610
	C7313	C	0.564470	0.253301	0.141450
	C7314	C	0.514491	0.253260	0.144339
	C7315	C	0.563347	0.253446	0.231674
	C7316	C	0.602443	0.192446	0.158722
	C7317	C	0.602689	0.314487	0.158637
	C7318	C	0.580605	0.253380	0.148583
	C7319	C	0.510145	0.253129	0.153592
	C7320	C	0.547185	0.753955	0.224538
	C7321	C	0.539671	0.815202	0.221169
	C7322	C	0.539811	0.692691	0.221141
	C7323	C	0.547165	0.253597	0.224554
	C7324	C	0.539804	0.314890	0.221114
	C7325	C	0.539654	0.192369	0.221189
	C7326	C	0.508263	0.191045	0.157923
	C7327	C	0.587878	0.192217	0.152045
	C7328	C	0.588103	0.314570	0.151960
	C7329	C	0.508666	0.315085	0.157978
	C7330	C	0.610002	0.253491	0.162095
	C7331	C	0.588617	0.043611	0.244885
	C7332	C	0.535614	0.043338	0.131446
	C7333	C	0.534243	0.962313	0.128618
	C7334	C	0.588615	0.962820	0.244896
	C7335	C	0.535585	0.962634	0.131453
	N7336	N	0.469979	0.070326	0.192626
	N7337	N	0.469869	0.935745	0.192634
	N7338	N	0.470056	0.435985	0.192568
	N7339	N	0.470067	0.570435	0.192629
	N7340	N	0.594777	0.435828	0.243077
	N7341	N	0.594635	0.570329	0.243037
	N7342	N	0.594800	0.070423	0.243044
	N7343	N	0.594744	0.935884	0.243054
	O7344	O	0.621852	0.695846	0.297491
	O7345	O	0.622278	0.812380	0.297427
	O7346	O	0.551226	0.694569	0.316200
	O7347	O	0.551469	0.811320	0.316156
	O7348	O	0.551372	0.194872	0.316193
	O7349	O	0.551190	0.311835	0.316227
	O7350	O	0.548801	0.694710	0.294930
	O7351	O	0.549000	0.811318	0.294951
	O7352	O	0.549124	0.195092	0.294924
	O7353	O	0.548870	0.311785	0.294910
	O7354	O	0.621507	0.696309	0.317537
	O7355	O	0.622243	0.813123	0.317662
	O7356	O	0.622399	0.193820	0.317692
	O7357	O	0.621534	0.310403	0.317559
	O7358	O	0.622330	0.193193	0.297412
	O7359	O	0.621856	0.309886	0.297448
	O7360	O	0.613391	0.694412	0.253625
	O7361	O	0.572380	0.694817	0.252445
	O7362	O	0.600611	0.694505	0.360467
	O7363	O	0.601104	0.811091	0.360563
	O7364	O	0.559600	0.695097	0.359985
	O7365	O	0.559744	0.811917	0.359962
	O7366	O	0.572526	0.811727	0.252493
	O7367	O	0.613690	0.811410	0.253590
	O7368	O	0.613716	0.194230	0.253606
	O7369	O	0.572493	0.194724	0.252438
	O7370	O	0.600958	0.195016	0.360551
	O7371	O	0.600569	0.311678	0.360431
	O7372	O	0.559605	0.194189	0.359974
	O7373	O	0.559333	0.310983	0.360062
	O7374	O	0.572434	0.311438	0.252405
	O7375	O	0.613513	0.311237	0.253676
	H7376	H	0.553945	0.643386	0.330263
	H7377	H	0.554743	0.863259	0.330204
	H7378	H	0.554487	0.143362	0.330223
	H7379	H	0.553964	0.363304	0.330310
	H7380	H	0.555311	0.862461	0.281174
	H7381	H	0.554809	0.643413	0.281122
	H7382	H	0.554836	0.362728	0.281124
	H7383	H	0.555269	0.144196	0.281168
	H7384	H	0.649736	0.064526	0.305243
	H7385	H	0.642272	0.064852	0.303955
	H7386	H	0.642448	0.941260	0.303974
	H7387	H	0.649765	0.941798	0.305285
	H7388	H	0.651092	0.064960	0.309554
	H7389	H	0.651089	0.941382	0.309603
	H7390	H	0.532655	0.064436	0.305003
	H7391	H	0.532790	0.941175	0.304977
	H7392	H	0.531667	0.065284	0.305136
	H7393	H	0.531524	0.941431	0.305173
	H7394	H	0.531268	0.064546	0.305717
	H7395	H	0.531182	0.941234	0.305728
	H7396	H	0.536485	0.441236	0.303989
	H7397	H	0.531940	0.441465	0.303236
	H7398	H	0.537647	0.441288	0.306619
	H7399	H	0.631641	0.441783	0.311482
	H7400	H	0.629244	0.441780	0.305058
	H7401	H	0.638650	0.441535	0.302240
	H7402	H	0.531927	0.564626	0.303322
	H7403	H	0.536578	0.564883	0.303987
	H7404	H	0.638758	0.564856	0.302207
	H7405	H	0.629282	0.564895	0.305039
	H7406	H	0.631702	0.565051	0.311451
	H7407	H	0.537703	0.564925	0.306644
	H7408	H	0.613733	0.644055	0.331235
	H7409	H	0.615515	0.863801	0.331443
	H7410	H	0.615087	0.142362	0.331460
	H7411	H	0.614286	0.362256	0.331292
	H7412	H	0.561872	0.643565	0.265708
	H7413	H	0.616077	0.642903	0.267778
	H7414	H	0.617050	0.862717	0.267615
	H7415	H	0.562311	0.862522	0.265775
	H7416	H	0.617231	0.643587	0.283500
	H7417	H	0.618191	0.863532	0.283335
	H7418	H	0.608248	0.643525	0.346762
	H7419	H	0.609976	0.862986	0.346972
	H7420	H	0.595429	0.441452	0.242531
	H7421	H	0.566979	0.440955	0.370526
	H7422	H	0.596103	0.441209	0.243187
	H7423	H	0.595437	0.441590	0.243559
	H7424	H	0.587171	0.441476	0.374495
	H7425	H	0.576453	0.441499	0.375156
	H7426	H	0.566958	0.564617	0.370555
	H7427	H	0.595320	0.564616	0.242512
	H7428	H	0.576380	0.565251	0.375095
	H7429	H	0.587128	0.564888	0.374523
	H7430	H	0.595304	0.564876	0.243507
	H7431	H	0.596015	0.564684	0.243143
	H7432	H	0.609335	0.143018	0.346984
	H7433	H	0.608505	0.362739	0.346770
	H7434	H	0.598046	0.064505	0.238630
	H7435	H	0.588288	0.064623	0.239130
	H7436	H	0.606392	0.064678	0.242879
	H7437	H	0.555560	0.863497	0.345921
	H7438	H	0.554761	0.643605	0.346001
	H7439	H	0.554875	0.362954	0.346034
	H7440	H	0.555345	0.143032	0.345954
	H7441	H	0.562333	0.144025	0.265770
	H7442	H	0.616950	0.142456	0.267645
	H7443	H	0.616153	0.362104	0.267758
	H7444	H	0.561884	0.362651	0.265701
	H7445	H	0.617947	0.141773	0.283371
	H7446	H	0.617197	0.361557	0.283466
	H7447	H	0.576133	0.064937	0.368793
	H7448	H	0.574824	0.064876	0.370480
	H7449	H	0.579025	0.064535	0.372223
	H7450	H	0.588242	0.941288	0.239161
	H7451	H	0.597913	0.940926	0.238633
	H7452	H	0.606288	0.941213	0.242913
	H7453	H	0.576104	0.941977	0.368812
	H7454	H	0.574914	0.941497	0.370454
	H7455	H	0.579054	0.941277	0.372255
	Zn7456	Zn	0.532312	0.680398	0.305568
	Zn7457	Zn	0.532341	0.825512	0.305591
	Zn7458	Zn	0.532383	0.180483	0.305591
	Zn7459	Zn	0.532279	0.325692	0.305579
	Zn7460	Zn	0.579733	0.680588	0.370236
	Zn7461	Zn	0.579985	0.825687	0.370209
	Zn7462	Zn	0.580037	0.180489	0.370246
	Zn7463	Zn	0.579820	0.325705	0.370256
	C7464	C	0.620263	0.754062	0.293826
	C7465	C	0.552696	0.752995	0.319833
	C7466	C	0.554575	0.753239	0.329285
	C7467	C	0.554332	0.691132	0.333759
	C7468	C	0.554808	0.815589	0.333718
	C7469	C	0.552626	0.253285	0.319849
	C7470	C	0.554589	0.253318	0.329308
	C7471	C	0.554657	0.191083	0.333736
	C7472	C	0.554372	0.315364	0.333783
	C7473	C	0.550759	0.753020	0.291373
	C7474	C	0.555105	0.752950	0.282128
	C7475	C	0.556802	0.814875	0.277757
	C7476	C	0.556518	0.691031	0.277715
	C7477	C	0.550825	0.253461	0.291346
	C7478	C	0.555019	0.253541	0.282101
	C7479	C	0.556516	0.315358	0.277705
	C7480	C	0.556752	0.191642	0.277737
	C7481	C	0.645178	0.043463	0.305419
	C7482	C	0.645207	0.962777	0.305435
	C7483	C	0.532280	0.043450	0.305219
	C7484	C	0.532301	0.962470	0.305212
	C7485	C	0.531919	0.043310	0.305818
	C7486	C	0.531894	0.962718	0.305837
	C7487	C	0.533798	0.462677	0.304127
	C7488	C	0.638423	0.462903	0.311162
	C7489	C	0.636029	0.462872	0.304707
	C7490	C	0.533786	0.543535	0.304145
	C7491	C	0.636098	0.543619	0.304698
	C7492	C	0.638463	0.543789	0.311147
	C7493	C	0.619398	0.754622	0.321105
	C7494	C	0.619524	0.252142	0.321150
	C7495	C	0.614680	0.754075	0.330356
	C7496	C	0.612824	0.691683	0.334716
	C7497	C	0.613807	0.815905	0.334837
	C7498	C	0.614746	0.252279	0.330392
	C7499	C	0.613589	0.190312	0.334873
	C7500	C	0.613134	0.314544	0.334758
	C7501	C	0.620272	0.251528	0.293806
	C7502	C	0.614905	0.752911	0.257250
	C7503	C	0.569175	0.753222	0.255833
	C7504	C	0.557838	0.753454	0.356359
	C7505	C	0.617080	0.691278	0.279981
	C7506	C	0.617626	0.815538	0.279882
	C7507	C	0.616860	0.752764	0.266731
	C7508	C	0.562537	0.753128	0.264854
	C7509	C	0.560319	0.691036	0.269159
	C7510	C	0.616659	0.690880	0.271241
	C7511	C	0.617220	0.815068	0.271148
	C7512	C	0.560592	0.815078	0.269202
	C7513	C	0.617556	0.753628	0.284401
	C7514	C	0.603604	0.752877	0.357016
	C7515	C	0.609854	0.691255	0.343344
	C7516	C	0.610863	0.815468	0.343467
	C7517	C	0.608820	0.753196	0.347807
	C7518	C	0.571708	0.462556	0.368990
	C7519	C	0.595530	0.462675	0.243279
	C7520	C	0.581244	0.462627	0.373620
	C7521	C	0.571683	0.543368	0.369002
	C7522	C	0.581243	0.543619	0.373626
	C7523	C	0.595446	0.543548	0.243245
	C7524	C	0.603467	0.253240	0.357001
	C7525	C	0.610539	0.190646	0.343493
	C7526	C	0.610112	0.314828	0.343371
	C7527	C	0.608795	0.252947	0.347831
	C7528	C	0.593562	0.043278	0.239962
	C7529	C	0.614953	0.252620	0.257279
	C7530	C	0.569124	0.253122	0.255796
	C7531	C	0.557687	0.252712	0.356395
	C7532	C	0.617510	0.189678	0.279893
	C7533	C	0.617062	0.313970	0.279956
	C7534	C	0.616867	0.252398	0.266740
	C7535	C	0.562455	0.253273	0.264820
	C7536	C	0.555145	0.753473	0.346920
	C7537	C	0.555154	0.815677	0.342450
	C7538	C	0.554679	0.691274	0.342487
	C7539	C	0.555030	0.252973	0.346954
	C7540	C	0.554711	0.315265	0.342517
	C7541	C	0.554973	0.190816	0.342472
	C7542	C	0.560485	0.191477	0.269175
	C7543	C	0.617120	0.190053	0.271160
	C7544	C	0.616673	0.314273	0.271229
	C7545	C	0.560254	0.315297	0.269139
	C7546	C	0.617538	0.251717	0.284383
	C7547	C	0.576686	0.043591	0.369787
	C7548	C	0.601969	0.043550	0.244242
	C7549	C	0.593531	0.962385	0.239981
	C7550	C	0.576701	0.962711	0.369786
	C7551	C	0.601969	0.962742	0.244245
	N7552	N	0.532627	0.070324	0.305550
	N7553	N	0.532597	0.935760	0.305552
	N7554	N	0.532423	0.435783	0.305557
	N7555	N	0.532454	0.570330	0.305591
	N7556	N	0.579858	0.436016	0.370227
	N7557	N	0.579795	0.570556	0.370227
	N7558	N	0.579987	0.070106	0.370208
	N7559	N	0.580040	0.935608	0.370198
	O7560	O	0.616557	0.694658	0.423914
	O7561	O	0.616314	0.811426	0.423933
	O7562	O	0.538653	0.696210	0.442942
	O7563	O	0.537737	0.813138	0.443050
	O7564	O	0.537691	0.192790	0.443025
	O7565	O	0.538710	0.309506	0.442936
	O7566	O	0.539021	0.696431	0.423100
	O7567	O	0.538459	0.812906	0.423044
	O7568	O	0.538366	0.192825	0.423007
	O7569	O	0.538794	0.309711	0.423066
	O7570	O	0.616164	0.695594	0.444043
	O7571	O	0.615994	0.812340	0.443940
	O7572	O	0.615788	0.195224	0.443960
	O7573	O	0.616271	0.311936	0.444045
	O7574	O	0.616297	0.195434	0.423928
	O7575	O	0.616560	0.312283	0.423939
	O7576	O	0.600403	0.694658	0.380422
	O7577	O	0.559540	0.695518	0.380140
	O7578	O	0.595612	0.696068	0.486945
	O7579	O	0.594781	0.812793	0.486844
	O7580	O	0.554591	0.694127	0.486466
	O7581	O	0.553833	0.810938	0.486573
	O7582	O	0.559493	0.812165	0.380128
	O7583	O	0.600467	0.811333	0.380407
	O7584	O	0.600441	0.195180	0.380464
	O7585	O	0.559382	0.193945	0.380080
	O7586	O	0.594900	0.194005	0.486854
	O7587	O	0.595675	0.310734	0.487021
	O7588	O	0.553983	0.194945	0.486574
	O7589	O	0.554739	0.311756	0.486438
	O7590	O	0.559498	0.310727	0.380159
	O7591	O	0.600453	0.311959	0.380422
	H7592	H	0.545400	0.643976	0.456784
	H7593	H	0.543125	0.863901	0.457007
	H7594	H	0.543508	0.141417	0.456987
	H7595	H	0.545482	0.361266	0.456794
	H7596	H	0.546303	0.864675	0.409337
	H7597	H	0.547484	0.644574	0.409449
	H7598	H	0.547083	0.360990	0.409471
	H7599	H	0.546241	0.141326	0.409285
	H7600	H	0.634619	0.065326	0.428938
	H7601	H	0.625197	0.064718	0.431278
	H7602	H	0.625283	0.941781	0.431263
	H7603	H	0.634656	0.941627	0.428911
	H7604	H	0.648301	0.065042	0.431767
	H7605	H	0.648369	0.941280	0.431787
	H7606	H	0.517129	0.065194	0.424484
	H7607	H	0.517123	0.941002	0.424492
	H7608	H	0.501067	0.064585	0.427314
	H7609	H	0.501242	0.941407	0.427339
	H7610	H	0.499297	0.064767	0.436823
	H7611	H	0.499336	0.941260	0.436850
	H7612	H	0.510342	0.441258	0.429824
	H7613	H	0.507430	0.441657	0.433235
	H7614	H	0.522459	0.441067	0.428904
	H7615	H	0.651044	0.442090	0.431520
	H7616	H	0.648472	0.441831	0.438697
	H7617	H	0.635924	0.441795	0.440563
	H7618	H	0.507461	0.564490	0.433204
	H7619	H	0.510213	0.564541	0.429831
	H7620	H	0.635891	0.565572	0.440515
	H7621	H	0.648328	0.565248	0.438687
	H7622	H	0.651057	0.565137	0.431569
	H7623	H	0.522459	0.564962	0.428920
	H7624	H	0.609029	0.644501	0.457715
	H7625	H	0.607830	0.863979	0.457590
	H7626	H	0.607605	0.143341	0.457623
	H7627	H	0.609069	0.363081	0.457785
	H7628	H	0.552901	0.644392	0.393942
	H7629	H	0.607245	0.642675	0.394310
	H7630	H	0.606269	0.862751	0.394375
	H7631	H	0.551811	0.864287	0.393825
	H7632	H	0.610921	0.642738	0.410020
	H7633	H	0.609835	0.862551	0.410030
	H7634	H	0.603549	0.644604	0.473249
	H7635	H	0.602208	0.864093	0.473113
	H7636	H	0.570742	0.441000	0.366558
	H7637	H	0.568308	0.441564	0.493627
	H7638	H	0.585376	0.441581	0.365674
	H7639	H	0.592297	0.441716	0.369036
	H7640	H	0.571423	0.441763	0.500472
	H7641	H	0.565430	0.441420	0.498044
	H7642	H	0.568534	0.564780	0.493592
	H7643	H	0.570619	0.564538	0.366564
	H7644	H	0.565455	0.564737	0.498067
	H7645	H	0.571645	0.565070	0.500453
	H7646	H	0.592423	0.564826	0.369013
	H7647	H	0.585239	0.565125	0.365635
	H7648	H	0.602197	0.142899	0.473144
	H7649	H	0.603668	0.362572	0.473325
	H7650	H	0.584952	0.065228	0.369580
	H7651	H	0.581950	0.064886	0.368296
	H7652	H	0.583341	0.064821	0.371851
	H7653	H	0.546847	0.863049	0.472693
	H7654	H	0.549136	0.643126	0.472471
	H7655	H	0.549227	0.362332	0.472462
	H7656	H	0.547279	0.142502	0.472696
	H7657	H	0.551756	0.141783	0.393765
	H7658	H	0.606497	0.143881	0.394351
	H7659	H	0.607035	0.363669	0.394265
	H7660	H	0.552601	0.361544	0.393929
	H7661	H	0.610105	0.144055	0.410043
	H7662	H	0.610654	0.363993	0.409965
	H7663	H	0.571462	0.064778	0.495952
	H7664	H	0.571076	0.064832	0.497211
	H7665	H	0.574447	0.065193	0.498266
	H7666	H	0.581943	0.942142	0.368321
	H7667	H	0.585059	0.941348	0.369588
	H7668	H	0.583272	0.941022	0.371846
	H7669	H	0.571429	0.941474	0.495960
	H7670	H	0.571029	0.941530	0.497189
	H7671	H	0.574551	0.941673	0.498253
	Zn7672	Zn	0.518037	0.680395	0.432820
	Zn7673	Zn	0.517304	0.825475	0.432769
	Zn7674	Zn	0.517169	0.180622	0.432756
	Zn7675	Zn	0.518095	0.325703	0.432794
	Zn7676	Zn	0.574972	0.680456	0.496734
	Zn7677	Zn	0.574488	0.825862	0.496729
	Zn7678	Zn	0.574587	0.180520	0.496750
	Zn7679	Zn	0.574818	0.325761	0.496755
	C7680	C	0.614255	0.752981	0.420345
	C7681	C	0.540415	0.754619	0.446563
	C7682	C	0.544392	0.754063	0.455950
	C7683	C	0.545876	0.691546	0.460324
	C7684	C	0.544606	0.816005	0.460453
	C7685	C	0.540433	0.251153	0.446560
	C7686	C	0.544422	0.251375	0.455934
	C7687	C	0.544854	0.189418	0.460433
	C7688	C	0.545919	0.313734	0.460320
	C7689	C	0.541491	0.754723	0.419578
	C7690	C	0.546617	0.754662	0.410372
	C7691	C	0.547831	0.816727	0.405932
	C7692	C	0.548508	0.692418	0.405994
	C7693	C	0.541294	0.251210	0.419555
	C7694	C	0.546514	0.251243	0.410338
	C7695	C	0.548189	0.313483	0.405982
	C7696	C	0.547716	0.189156	0.405872
	C7697	C	0.631639	0.043598	0.431161
	C7698	C	0.631690	0.962940	0.431156
	C7699	C	0.511278	0.043545	0.427695
	C7700	C	0.511299	0.962670	0.427706
	C7701	C	0.509403	0.043501	0.437248
	C7702	C	0.509433	0.962637	0.437259
	C7703	C	0.511327	0.462661	0.431864
	C7704	C	0.643393	0.462921	0.430999
	C7705	C	0.640756	0.462936	0.438225
	C7706	C	0.511308	0.543254	0.431853
	C7707	C	0.640717	0.543866	0.438222
	C7708	C	0.643340	0.543632	0.431019
	C7709	C	0.613469	0.754111	0.447490
	C7710	C	0.613461	0.253554	0.447510
	C7711	C	0.608508	0.754245	0.456712
	C7712	C	0.607463	0.692202	0.461148
	C7713	C	0.606783	0.816418	0.461077
	C7714	C	0.608544	0.253305	0.456741
	C7715	C	0.606677	0.191038	0.461108
	C7716	C	0.607481	0.315287	0.461202
	C7717	C	0.614249	0.253928	0.420353
	C7718	C	0.602726	0.753001	0.383992
	C7719	C	0.557053	0.753911	0.383659
	C7720	C	0.552033	0.752624	0.482937
	C7721	C	0.609830	0.690371	0.406527
	C7722	C	0.609225	0.814844	0.406532
	C7723	C	0.606713	0.752729	0.393367
	C7724	C	0.552436	0.754338	0.392913
	C7725	C	0.551411	0.692240	0.397360
	C7726	C	0.607920	0.690390	0.397811
	C7727	C	0.607351	0.814875	0.397829
	C7728	C	0.550769	0.816530	0.397301
	C7729	C	0.610423	0.752705	0.410966
	C7730	C	0.597721	0.754466	0.483388
	C7731	C	0.604552	0.692267	0.469778
	C7732	C	0.603842	0.816387	0.469705
	C7733	C	0.602691	0.754357	0.474152
	C7734	C	0.573139	0.462922	0.494145
	C7735	C	0.586419	0.462989	0.368121
	C7736	C	0.570187	0.462668	0.498600
	C7737	C	0.573195	0.543599	0.494133
	C7738	C	0.570214	0.543491	0.498584
	C7739	C	0.586425	0.543688	0.368113
	C7740	C	0.597901	0.252549	0.483443
	C7741	C	0.603807	0.190827	0.469743
	C7742	C	0.604608	0.315005	0.469838
	C7743	C	0.602837	0.252822	0.474206
	C7744	C	0.582568	0.043609	0.369271
	C7745	C	0.602737	0.253664	0.384010
	C7746	C	0.557020	0.252208	0.383635
	C7747	C	0.552139	0.253168	0.482933
	C7748	C	0.609422	0.191812	0.406544
	C7749	C	0.609712	0.316101	0.406493
	C7750	C	0.606790	0.253786	0.393371
	C7751	C	0.552296	0.251783	0.392881
	C7752	C	0.548141	0.752992	0.473553
	C7753	C	0.546530	0.815472	0.469166
	C7754	C	0.547820	0.691027	0.469038
	C7755	C	0.548210	0.252474	0.473543
	C7756	C	0.547865	0.314290	0.469031
	C7757	C	0.546795	0.189968	0.469156
	C7758	C	0.550698	0.189455	0.397244
	C7759	C	0.607529	0.191632	0.397830
	C7760	C	0.607814	0.316042	0.397778
	C7761	C	0.551145	0.313772	0.397349
	C7762	C	0.610427	0.254066	0.410969
	C7763	C	0.572111	0.043612	0.496641
	C7764	C	0.580927	0.043361	0.371555
	C7765	C	0.582582	0.962797	0.369269
	C7766	C	0.572103	0.962840	0.496641
	C7767	C	0.580912	0.962585	0.371555
	N7768	N	0.517271	0.070350	0.432756
	N7769	N	0.517318	0.935798	0.432802
	N7770	N	0.518212	0.435848	0.432821
	N7771	N	0.518172	0.570355	0.432808
	N7772	N	0.574885	0.435912	0.496741
	N7773	N	0.574951	0.570406	0.496739
	N7774	N	0.574609	0.070569	0.496775
	N7775	N	0.574634	0.936081	0.496746
	O7776	O	0.609123	0.694307	0.550632
	O7777	O	0.608999	0.811104	0.550686
	O7778	O	0.531983	0.694850	0.569498
	O7779	O	0.532045	0.811537	0.569477
	O7780	O	0.532102	0.194881	0.569448
	O7781	O	0.532078	0.311543	0.569451
	O7782	O	0.532498	0.694284	0.549376
	O7783	O	0.532237	0.811054	0.549289
	O7784	O	0.532225	0.194802	0.549317
	O7785	O	0.532386	0.311466	0.549382
	O7786	O	0.609050	0.693989	0.570786
	O7787	O	0.608557	0.810668	0.570725
	O7788	O	0.608741	0.195121	0.570731
	O7789	O	0.609034	0.311934	0.570789
	O7790	O	0.608823	0.195689	0.550668
	O7791	O	0.609247	0.312422	0.550585
	O7792	O	0.595102	0.695549	0.507016
	O7793	O	0.554098	0.693660	0.506513
	O7794	O	0.587555	0.694579	0.613632
	O7795	O	0.587210	0.811298	0.613593
	O7796	O	0.546518	0.693965	0.613109
	O7797	O	0.546254	0.810820	0.613114
	O7798	O	0.553930	0.810351	0.506473
	O7799	O	0.594947	0.812219	0.507040
	O7800	O	0.594826	0.194262	0.507030
	O7801	O	0.553827	0.195491	0.506514
	O7802	O	0.587162	0.193926	0.613548
	O7803	O	0.587518	0.310583	0.613606
	O7804	O	0.546192	0.195033	0.613065
	O7805	O	0.546457	0.311655	0.613105
	O7806	O	0.553957	0.312004	0.506527
	O7807	O	0.595036	0.311013	0.507033
	H7808	H	0.538394	0.643451	0.583369
	H7809	H	0.537092	0.863263	0.583511
	H7810	H	0.537419	0.143637	0.583431
	H7811	H	0.537975	0.363312	0.583418
	H7812	H	0.540246	0.862070	0.535626
	H7813	H	0.540084	0.642365	0.535652
	H7814	H	0.540363	0.363022	0.535703
	H7815	H	0.539757	0.143691	0.535669
	H7816	H	0.626087	0.064373	0.557299
	H7817	H	0.620309	0.064649	0.559397
	H7818	H	0.620346	0.940862	0.559407
	H7819	H	0.626127	0.941048	0.557331
	H7820	H	0.636401	0.064736	0.558714
	H7821	H	0.636516	0.941229	0.558690
	H7822	H	0.517168	0.064856	0.558759
	H7823	H	0.517172	0.941436	0.558774
	H7824	H	0.514495	0.064443	0.557268
	H7825	H	0.514394	0.941524	0.557308
	H7826	H	0.508218	0.064877	0.557524
	H7827	H	0.508369	0.940884	0.557539
	H7828	H	0.512008	0.441546	0.554865
	H7829	H	0.503656	0.440931	0.556265
	H7830	H	0.522206	0.441677	0.557889
	H7831	H	0.640772	0.441396	0.562937
	H7832	H	0.628601	0.440638	0.565740
	H7833	H	0.619465	0.441237	0.563688
	H7834	H	0.503624	0.564372	0.556282
	H7835	H	0.512094	0.564867	0.554899
	H7836	H	0.619450	0.564380	0.563696
	H7837	H	0.628622	0.564715	0.565708
	H7838	H	0.640687	0.564905	0.562937
	H7839	H	0.522237	0.564614	0.557931
	H7840	H	0.601394	0.642642	0.584495
	H7841	H	0.600673	0.862161	0.584402
	H7842	H	0.600716	0.143368	0.584329
	H7843	H	0.601522	0.363088	0.584505
	H7844	H	0.545881	0.642165	0.520154
	H7845	H	0.600945	0.644047	0.520897
	H7846	H	0.600188	0.863676	0.521041
	H7847	H	0.546050	0.861693	0.520118
	H7848	H	0.603798	0.643324	0.536597
	H7849	H	0.603074	0.863105	0.536791
	H7850	H	0.595702	0.643030	0.600008
	H7851	H	0.594897	0.862465	0.599912
	H7852	H	0.576605	0.441653	0.492817
	H7853	H	0.565454	0.441261	0.617021
	H7854	H	0.584828	0.441275	0.496117
	H7855	H	0.582803	0.440995	0.499360
	H7856	H	0.553322	0.440944	0.626844
	H7857	H	0.551130	0.441346	0.621513
	H7858	H	0.565528	0.564857	0.617010
	H7859	H	0.576699	0.564655	0.492825
	H7860	H	0.551128	0.564699	0.621517
	H7861	H	0.553307	0.564618	0.626832
	H7862	H	0.582743	0.564724	0.499349
	H7863	H	0.584927	0.564625	0.496116
	H7864	H	0.594943	0.142667	0.599826
	H7865	H	0.595789	0.362471	0.600020
	H7866	H	0.577933	0.065260	0.496086
	H7867	H	0.575456	0.064578	0.495308
	H7868	H	0.577379	0.065651	0.497819
	H7869	H	0.540122	0.862658	0.599192
	H7870	H	0.541458	0.642948	0.599072
	H7871	H	0.541100	0.363360	0.599133
	H7872	H	0.540534	0.143530	0.599099
	H7873	H	0.545571	0.143889	0.520149
	H7874	H	0.599690	0.143066	0.521055
	H7875	H	0.601150	0.362653	0.520913
	H7876	H	0.546097	0.362997	0.520225
	H7877	H	0.602865	0.143685	0.536760
	H7878	H	0.604341	0.363314	0.536591
	H7879	H	0.576387	0.064529	0.616582
	H7880	H	0.559567	0.064644	0.615849
	H7881	H	0.546325	0.064480	0.623198
	H7882	H	0.575314	0.941492	0.495292
	H7883	H	0.577882	0.941597	0.496062
	H7884	H	0.577457	0.941724	0.497763
	H7885	H	0.576394	0.941033	0.616599
	H7886	H	0.559624	0.940805	0.615879
	H7887	H	0.546451	0.940794	0.623158
	Zn7888	Zn	0.511846	0.680512	0.559246
	Zn7889	Zn	0.511874	0.825417	0.559151
	Zn7890	Zn	0.511869	0.180449	0.559165
	Zn7891	Zn	0.511763	0.325304	0.559204
	Zn7892	Zn	0.566710	0.680700	0.623412
	Zn7893	Zn	0.566579	0.825114	0.623375
	Zn7894	Zn	0.566368	0.180561	0.623366
	Zn7895	Zn	0.566777	0.325222	0.623411
	C7896	C	0.606975	0.752798	0.547068
	C7897	C	0.534052	0.753263	0.573090
	C7898	C	0.537659	0.753359	0.582466
	C7899	C	0.538843	0.691101	0.586883
	C7900	C	0.538135	0.815348	0.586951
	C7901	C	0.534142	0.253223	0.573053
	C7902	C	0.537677	0.253483	0.582460
	C7903	C	0.538276	0.191425	0.586913
	C7904	C	0.538601	0.315608	0.586916
	C7905	C	0.534932	0.752540	0.545834
	C7906	C	0.539882	0.752226	0.536613
	C7907	C	0.541461	0.814256	0.532190
	C7908	C	0.541435	0.690058	0.532214
	C7909	C	0.534935	0.253244	0.545856
	C7910	C	0.540023	0.253327	0.536660
	C7911	C	0.541646	0.315331	0.532265
	C7912	C	0.541339	0.191382	0.532236
	C7913	C	0.624737	0.043329	0.559039
	C7914	C	0.624761	0.962450	0.559034
	C7915	C	0.514795	0.043259	0.558324
	C7916	C	0.514792	0.962569	0.558332
	C7917	C	0.508555	0.043490	0.558572
	C7918	C	0.508602	0.962509	0.558573
	C7919	C	0.508862	0.462491	0.556516
	C7920	C	0.637622	0.462810	0.560880
	C7921	C	0.625421	0.462497	0.563704
	C7922	C	0.508910	0.543261	0.556526
	C7923	C	0.625416	0.543449	0.563701
	C7924	C	0.637605	0.543363	0.560877
	C7925	C	0.606305	0.752346	0.574263
	C7926	C	0.606347	0.253455	0.574263
	C7927	C	0.601352	0.752460	0.583492
	C7928	C	0.599993	0.690445	0.587914
	C7929	C	0.599604	0.814595	0.587867
	C7930	C	0.601380	0.253210	0.583487
	C7931	C	0.599573	0.190888	0.587823
	C7932	C	0.600042	0.315227	0.587920
	C7933	C	0.607023	0.253926	0.547028
	C7934	C	0.597104	0.753864	0.510625
	C7935	C	0.551313	0.751974	0.509982
	C7936	C	0.544271	0.752382	0.609509
	C7937	C	0.603033	0.691256	0.533153
	C7938	C	0.602596	0.815530	0.533250
	C7939	C	0.600643	0.753922	0.520032
	C7940	C	0.546045	0.751911	0.519197
	C7941	C	0.544509	0.689895	0.523600
	C7942	C	0.601540	0.691582	0.524434
	C7943	C	0.601109	0.815919	0.524525
	C7944	C	0.544565	0.814115	0.523578
	C7945	C	0.603587	0.753214	0.537659
	C7946	C	0.590078	0.752938	0.610123
	C7947	C	0.596920	0.690612	0.596533
	C7948	C	0.596531	0.814764	0.596489
	C7949	C	0.595266	0.752745	0.600917
	C7950	C	0.570485	0.462644	0.619416
	C7951	C	0.581487	0.462587	0.497470
	C7952	C	0.556021	0.462542	0.623973
	C7953	C	0.570453	0.543416	0.619415
	C7954	C	0.556013	0.543393	0.623974
	C7955	C	0.581502	0.543617	0.497460
	C7956	C	0.590055	0.252244	0.610089
	C7957	C	0.596515	0.190589	0.596436
	C7958	C	0.596963	0.314852	0.596537
	C7959	C	0.595245	0.252509	0.600887
	C7960	C	0.576131	0.043672	0.495987
	C7961	C	0.597023	0.252615	0.510621
	C7962	C	0.551234	0.253725	0.510022
	C7963	C	0.544253	0.253476	0.609487
	C7964	C	0.602353	0.191241	0.533233
	C7965	C	0.603167	0.315454	0.533149
	C7966	C	0.600553	0.252780	0.520017
	C7967	C	0.546112	0.253471	0.519235
	C7968	C	0.540706	0.752712	0.600096
	C7969	C	0.539672	0.814982	0.595674
	C7970	C	0.540385	0.690751	0.595606
	C7971	C	0.540776	0.253498	0.600091
	C7972	C	0.540200	0.315622	0.595641
	C7973	C	0.539870	0.191404	0.595629
	C7974	C	0.544394	0.191427	0.523615
	C7975	C	0.600855	0.190876	0.524513
	C7976	C	0.601650	0.315074	0.524430
	C7977	C	0.544699	0.315363	0.523651
	C7978	C	0.603531	0.253512	0.537637
	C7979	C	0.567556	0.043234	0.618093
	C7980	C	0.575625	0.043913	0.497716
	C7981	C	0.576087	0.962954	0.495973
	C7982	C	0.567582	0.962312	0.618099
	C7983	C	0.575632	0.962941	0.497695
	N7984	N	0.511909	0.070234	0.559164
	N7985	N	0.511936	0.935649	0.559148
	N7986	N	0.511826	0.435599	0.559191
	N7987	N	0.511871	0.570225	0.559195
	N7988	N	0.566675	0.435435	0.623379
	N7989	N	0.566693	0.570049	0.623382
	N7990	N	0.566382	0.070134	0.623351
	N7991	N	0.566468	0.935546	0.623343
	O7992	O	0.603464	0.694333	0.677098
	O7993	O	0.603335	0.810996	0.677140
	O7994	O	0.524794	0.695450	0.696085
	O7995	O	0.524054	0.812015	0.696173
	O7996	O	0.524335	0.193764	0.696115
	O7997	O	0.524852	0.310638	0.696073
	O7998	O	0.525265	0.695350	0.676149
	O7999	O	0.524582	0.812147	0.676022
	O8000	O	0.524681	0.193402	0.676049
	O8001	O	0.525128	0.310101	0.676148
	O8002	O	0.603001	0.694087	0.697126
	O8003	O	0.602713	0.810685	0.697063
	O8004	O	0.602925	0.194598	0.697101
	O8005	O	0.603078	0.311190	0.697123
	O8006	O	0.603280	0.194676	0.677131
	O8007	O	0.603661	0.311471	0.677062
	O8008	O	0.587202	0.694910	0.633608
	O8009	O	0.546279	0.694280	0.633295
	O8010	O	0.581910	0.694701	0.739976
	O8011	O	0.581573	0.811697	0.739921
	O8012	O	0.541143	0.693448	0.739527
	O8013	O	0.540602	0.810135	0.739672
	O8014	O	0.545922	0.811116	0.633183
	O8015	O	0.586979	0.811705	0.633641
	O8016	O	0.586780	0.193908	0.633618
	O8017	O	0.545733	0.194969	0.633171
	O8018	O	0.581561	0.193626	0.739919
	O8019	O	0.582086	0.310195	0.740007
	O8020	O	0.540468	0.195486	0.739689
	O8021	O	0.541250	0.312106	0.739504
	O8022	O	0.546410	0.311873	0.633269
	O8023	O	0.587292	0.310723	0.633617
	H8024	H	0.531434	0.643475	0.709910
	H8025	H	0.530111	0.862966	0.710124
	H8026	H	0.530443	0.142398	0.710110
	H8027	H	0.531347	0.361866	0.709900
	H8028	H	0.532297	0.863330	0.662326
	H8029	H	0.533354	0.643695	0.662535
	H8030	H	0.533519	0.362282	0.662568
	H8031	H	0.532173	0.142212	0.662330
	H8032	H	0.628017	0.064805	0.690916
	H8033	H	0.633420	0.064898	0.688455
	H8034	H	0.633445	0.941291	0.688458
	H8035	H	0.628082	0.941147	0.690918
	H8036	H	0.616943	0.064632	0.690051
	H8037	H	0.616819	0.941087	0.690040
	H8038	H	0.494965	0.064292	0.679794
	H8039	H	0.495035	0.941081	0.679774
	H8040	H	0.486604	0.064511	0.684491
	H8041	H	0.486511	0.940913	0.684516
	H8042	H	0.495139	0.064795	0.691764
	H8043	H	0.495140	0.941095	0.691817
	H8044	H	0.511631	0.441459	0.686002
	H8045	H	0.509102	0.440977	0.683698
	H8046	H	0.506646	0.441163	0.688645
	H8047	H	0.632581	0.441168	0.683526
	H8048	H	0.636281	0.441091	0.689335
	H8049	H	0.628390	0.441303	0.692286
	H8050	H	0.509115	0.564612	0.683738
	H8051	H	0.511688	0.564281	0.685970
	H8052	H	0.628376	0.564742	0.692300
	H8053	H	0.636251	0.565007	0.689325
	H8054	H	0.632578	0.564520	0.683532
	H8055	H	0.506638	0.564592	0.688651
	H8056	H	0.595213	0.642837	0.710827
	H8057	H	0.594600	0.862316	0.710700
	H8058	H	0.594828	0.143084	0.710704
	H8059	H	0.595359	0.362202	0.710818
	H8060	H	0.539025	0.643136	0.647038
	H8061	H	0.593809	0.643622	0.647459
	H8062	H	0.592981	0.862892	0.647586
	H8063	H	0.537977	0.862829	0.646825
	H8064	H	0.597629	0.643116	0.663137
	H8065	H	0.596815	0.862606	0.663267
	H8066	H	0.589411	0.643215	0.726332
	H8067	H	0.588874	0.862743	0.726222
	H8068	H	0.578192	0.441565	0.619005
	H8069	H	0.557620	0.440981	0.750075
	H8070	H	0.581225	0.441281	0.626301
	H8071	H	0.570711	0.441142	0.629621
	H8072	H	0.564170	0.441442	0.751197
	H8073	H	0.560865	0.440675	0.751444
	H8074	H	0.557562	0.564276	0.750044
	H8075	H	0.578164	0.564800	0.619024
	H8076	H	0.560771	0.564544	0.751470
	H8077	H	0.564182	0.564675	0.751183
	H8078	H	0.570774	0.564804	0.629621
	H8079	H	0.581212	0.564625	0.626293
	H8080	H	0.589129	0.142486	0.726212
	H8081	H	0.589711	0.361934	0.726292
	H8082	H	0.576392	0.064249	0.630296
	H8083	H	0.586026	0.064564	0.624978
	H8084	H	0.553486	0.064388	0.629306
	H8085	H	0.534007	0.862059	0.725814
	H8086	H	0.535261	0.642566	0.725585
	H8087	H	0.535314	0.362571	0.725563
	H8088	H	0.534138	0.143269	0.725791
	H8089	H	0.537831	0.142971	0.646806
	H8090	H	0.592735	0.142655	0.647532
	H8091	H	0.593907	0.362376	0.647458
	H8092	H	0.539159	0.362982	0.647043
	H8093	H	0.596609	0.142946	0.663220
	H8094	H	0.597800	0.362610	0.663148
	H8095	H	0.574162	0.064538	0.749366
	H8096	H	0.568623	0.064425	0.745620
	H8097	H	0.553545	0.064732	0.745552
	H8098	H	0.586256	0.941536	0.624914
	H8099	H	0.576480	0.940997	0.630321
	H8100	H	0.553507	0.940712	0.629291
	H8101	H	0.574243	0.940794	0.749360
	H8102	H	0.568550	0.941212	0.745607
	H8103	H	0.553537	0.941278	0.745556
	Zn8104	Zn	0.504439	0.680606	0.685868
	Zn8105	Zn	0.503872	0.825369	0.685863
	Zn8106	Zn	0.503946	0.180667	0.685871
	Zn8107	Zn	0.504360	0.325348	0.685864
	Zn8108	Zn	0.561588	0.680631	0.749871
	Zn8109	Zn	0.561092	0.825088	0.749835
	Zn8110	Zn	0.561036	0.180393	0.749790
	Zn8111	Zn	0.561539	0.324786	0.749840
	C8112	C	0.601183	0.752743	0.673536
	C8113	C	0.526672	0.753707	0.699711
	C8114	C	0.530624	0.753324	0.709080
	C8115	C	0.532000	0.691014	0.713452
	C8116	C	0.531249	0.815141	0.713580
	C8117	C	0.526791	0.252208	0.699662
	C8118	C	0.530805	0.252198	0.709033
	C8119	C	0.531474	0.190307	0.713548
	C8120	C	0.532015	0.314390	0.713421
	C8121	C	0.527555	0.753719	0.672592
	C8122	C	0.532650	0.753604	0.663386
	C8123	C	0.533831	0.815529	0.658918
	C8124	C	0.534375	0.691307	0.659044
	C8125	C	0.527603	0.251824	0.672608
	C8126	C	0.532637	0.252178	0.663389
	C8127	C	0.534494	0.314661	0.659058
	C8128	C	0.533769	0.190159	0.658927
	C8129	C	0.628950	0.043473	0.689064
	C8130	C	0.628943	0.962530	0.689073
	C8131	C	0.494249	0.043137	0.683111
	C8132	C	0.494201	0.962269	0.683125
	C8133	C	0.502811	0.043406	0.690452
	C8134	C	0.502809	0.962562	0.690473
	C8135	C	0.508759	0.462580	0.685114
	C8136	C	0.626448	0.462596	0.684049
	C8137	C	0.630164	0.462534	0.689899
	C8138	C	0.508784	0.543126	0.685125
	C8139	C	0.630146	0.543528	0.689900
	C8140	C	0.626406	0.543397	0.684056
	C8141	C	0.600224	0.752425	0.700593
	C8142	C	0.600371	0.252871	0.700618
	C8143	C	0.595160	0.752548	0.709817
	C8144	C	0.593768	0.690563	0.714251
	C8145	C	0.593420	0.814766	0.714180
	C8146	C	0.595183	0.252627	0.709817
	C8147	C	0.593558	0.190539	0.714189
	C8148	C	0.593854	0.314482	0.714241
	C8149	C	0.601176	0.253001	0.673529
	C8150	C	0.589326	0.753295	0.637208
	C8151	C	0.543521	0.752827	0.636743
	C8152	C	0.538612	0.751986	0.736027
	C8153	C	0.596474	0.690903	0.659686
	C8154	C	0.596099	0.814992	0.659764
	C8155	C	0.593375	0.753283	0.646577
	C8156	C	0.538541	0.752988	0.645958
	C8157	C	0.537366	0.691024	0.650425
	C8158	C	0.594494	0.691105	0.650979
	C8159	C	0.594113	0.815212	0.651055
	C8160	C	0.536821	0.815207	0.650300
	C8161	C	0.597168	0.752796	0.664176
	C8162	C	0.584288	0.753172	0.736451
	C8163	C	0.590768	0.690781	0.722870
	C8164	C	0.590440	0.814986	0.722802
	C8165	C	0.589197	0.753017	0.727237
	C8166	C	0.559027	0.462214	0.749536
	C8167	C	0.573522	0.462357	0.626756
	C8168	C	0.562274	0.462292	0.750949
	C8169	C	0.559010	0.542930	0.749541
	C8170	C	0.562291	0.543261	0.750952
	C8171	C	0.573539	0.543318	0.626757
	C8172	C	0.584386	0.252005	0.736451
	C8173	C	0.590528	0.190292	0.722802
	C8174	C	0.590817	0.314241	0.722849
	C8175	C	0.589241	0.252171	0.727245
	C8176	C	0.577331	0.043182	0.626500
	C8177	C	0.589297	0.252251	0.637194
	C8178	C	0.543532	0.253368	0.636718
	C8179	C	0.538627	0.253594	0.736012
	C8180	C	0.595937	0.190614	0.659724
	C8181	C	0.596577	0.314817	0.659687
	C8182	C	0.593275	0.252453	0.646559
	C8183	C	0.538568	0.253042	0.645957
	C8184	C	0.534573	0.752338	0.726672
	C8185	C	0.533285	0.814629	0.722288
	C8186	C	0.534048	0.690538	0.722154
	C8187	C	0.534546	0.253043	0.726640
	C8188	C	0.533971	0.314781	0.722128
	C8189	C	0.533433	0.190710	0.722260
	C8190	C	0.536755	0.190591	0.650303
	C8191	C	0.593913	0.190374	0.651016
	C8192	C	0.594547	0.314730	0.650981
	C8193	C	0.537484	0.315054	0.650432
	C8194	C	0.597240	0.252836	0.664148
	C8195	C	0.568746	0.043104	0.748096
	C8196	C	0.554233	0.043090	0.625487
	C8197	C	0.577403	0.962447	0.626498
	C8198	C	0.568748	0.962310	0.748102
	C8199	C	0.554302	0.962147	0.625479
	N8200	N	0.503811	0.070111	0.685836
	N8201	N	0.503802	0.935508	0.685874
	N8202	N	0.504252	0.435634	0.685874
	N8203	N	0.504301	0.570212	0.685886
	N8204	N	0.561650	0.435428	0.749870
	N8205	N	0.561647	0.570113	0.749888
	N8206	N	0.561199	0.069927	0.749795
	N8207	N	0.561213	0.935336	0.749796
	O8208	O	0.595013	0.695532	0.803743
	O8209	O	0.595052	0.812427	0.803734
	O8210	O	0.519126	0.694803	0.822628
	O8211	O	0.519188	0.811723	0.822632
	O8212	O	0.519011	0.193931	0.822716
	O8213	O	0.519292	0.310828	0.822609
	O8214	O	0.519677	0.694782	0.802552
	O8215	O	0.519205	0.811630	0.802449
	O8216	O	0.519358	0.193902	0.802491
	O8217	O	0.519456	0.310694	0.802498
	O8218	O	0.594615	0.695257	0.823952
	O8219	O	0.594839	0.812031	0.823921
	O8220	O	0.594819	0.194060	0.823942
	O8221	O	0.594669	0.310713	0.823920
	O8222	O	0.594893	0.194024	0.803778
	O8223	O	0.595132	0.310831	0.803745
	O8224	O	0.581553	0.695663	0.760126
	O8225	O	0.540720	0.693539	0.759641
	O8226	O	0.573605	0.694896	0.866801
	O8227	O	0.573639	0.811823	0.866799
	O8228	O	0.532670	0.694598	0.866266
	O8229	O	0.532595	0.811370	0.866275
	O8230	O	0.540057	0.810217	0.759537
	O8231	O	0.581279	0.812506	0.760142
	O8232	O	0.581412	0.193072	0.760126
	O8233	O	0.540270	0.195263	0.759597
	O8234	O	0.573760	0.194497	0.866822
	O8235	O	0.573544	0.311281	0.866810
	O8236	O	0.532617	0.194623	0.866282
	O8237	O	0.532461	0.311492	0.866271
	O8238	O	0.540596	0.311970	0.759607
	O8239	O	0.581673	0.309895	0.760131
	H8240	H	0.524515	0.643375	0.836617
	H8241	H	0.524701	0.863065	0.836599
	H8242	H	0.524367	0.143018	0.836639
	H8243	H	0.524454	0.362660	0.836540
	H8244	H	0.525968	0.862589	0.788648
	H8245	H	0.527816	0.642965	0.788921
	H8246	H	0.527434	0.362725	0.788863
	H8247	H	0.526208	0.143113	0.788733
	H8248	H	0.611805	0.064519	0.815780
	H8249	H	0.616486	0.064400	0.816250
	H8250	H	0.616548	0.941047	0.816260
	H8251	H	0.611804	0.941104	0.815796
	H8252	H	0.609826	0.064562	0.813277
	H8253	H	0.609841	0.941039	0.813273
	H8254	H	0.511946	0.064913	0.816708
	H8255	H	0.511877	0.940890	0.816692
	H8256	H	0.515600	0.064611	0.811373
	H8257	H	0.515526	0.941071	0.811353
	H8258	H	0.501946	0.064484	0.805836
	H8259	H	0.501961	0.941338	0.805874
	H8260	H	0.493077	0.441247	0.809789
	H8261	H	0.490346	0.441426	0.812461
	H8262	H	0.503009	0.440920	0.809313
	H8263	H	0.625640	0.441695	0.816499
	H8264	H	0.613047	0.440983	0.818838
	H8265	H	0.604472	0.441225	0.816483
	H8266	H	0.490340	0.564651	0.812453
	H8267	H	0.493125	0.564341	0.809742
	H8268	H	0.604499	0.564350	0.816512
	H8269	H	0.613023	0.564858	0.818804
	H8270	H	0.625573	0.564629	0.816467
	H8271	H	0.503116	0.564510	0.809296
	H8272	H	0.587129	0.643773	0.837653
	H8273	H	0.587176	0.863764	0.837622
	H8274	H	0.587361	0.142625	0.837684
	H8275	H	0.587079	0.362446	0.837616
	H8276	H	0.533295	0.642477	0.773397
	H8277	H	0.587136	0.644326	0.774071
	H8278	H	0.586471	0.864051	0.774095
	H8279	H	0.531471	0.861907	0.773131
	H8280	H	0.590085	0.644372	0.789768
	H8281	H	0.589517	0.864111	0.789786
	H8282	H	0.581511	0.643643	0.853151
	H8283	H	0.581585	0.863624	0.853143
	H8284	H	0.558603	0.440975	0.748746
	H8285	H	0.548455	0.441334	0.874729
	H8286	H	0.563150	0.440749	0.748373
	H8287	H	0.565579	0.441160	0.749416
	H8288	H	0.550865	0.441406	0.878953
	H8289	H	0.547034	0.441045	0.877489
	H8290	H	0.548519	0.564612	0.874689
	H8291	H	0.558535	0.564204	0.748767
	H8292	H	0.546965	0.564915	0.877492
	H8293	H	0.550841	0.564859	0.878922
	H8294	H	0.565554	0.564705	0.749389
	H8295	H	0.563128	0.564634	0.748369
	H8296	H	0.581764	0.142962	0.853223
	H8297	H	0.581517	0.362858	0.853141
	H8298	H	0.555855	0.064373	0.754441
	H8299	H	0.566832	0.064613	0.754493
	H8300	H	0.548187	0.064676	0.749326
	H8301	H	0.527459	0.863044	0.852320
	H8302	H	0.527214	0.643195	0.852305
	H8303	H	0.527194	0.363030	0.852263
	H8304	H	0.527114	0.143246	0.852335
	H8305	H	0.531826	0.143657	0.773202
	H8306	H	0.586355	0.141365	0.774133
	H8307	H	0.587243	0.361388	0.774017
	H8308	H	0.533124	0.363305	0.773369
	H8309	H	0.589114	0.141908	0.789843
	H8310	H	0.589977	0.361750	0.789755
	H8311	H	0.556454	0.064668	0.870652
	H8312	H	0.543725	0.064500	0.871566
	H8313	H	0.538118	0.064533	0.878156
	H8314	H	0.566887	0.940899	0.754530
	H8315	H	0.555846	0.941216	0.754489
	H8316	H	0.548154	0.941215	0.749276
	H8317	H	0.556426	0.941216	0.870681
	H8318	H	0.543787	0.941353	0.871545
	H8319	H	0.538070	0.940919	0.878172
	Zn8320	Zn	0.499022	0.680169	0.812344
	Zn8321	Zn	0.498900	0.825418	0.812389
	Zn8322	Zn	0.498895	0.180182	0.812395
	Zn8323	Zn	0.499000	0.325287	0.812391
	Zn8324	Zn	0.552872	0.680521	0.876549
	Zn8325	Zn	0.552833	0.825271	0.876588
	Zn8326	Zn	0.552814	0.180481	0.876584
	Zn8327	Zn	0.552860	0.325241	0.876588
	C8328	C	0.592998	0.754012	0.800148
	C8329	C	0.521227	0.753260	0.826210
	C8330	C	0.524641	0.753211	0.835621
	C8331	C	0.525190	0.691122	0.840086
	C8332	C	0.525330	0.815328	0.840086
	C8333	C	0.521134	0.252555	0.826256
	C8334	C	0.524498	0.252833	0.835657
	C8335	C	0.525106	0.190809	0.840120
	C8336	C	0.525150	0.315163	0.840068
	C8337	C	0.521996	0.753113	0.799001
	C8338	C	0.526824	0.752854	0.789754
	C8339	C	0.527672	0.814774	0.785267
	C8340	C	0.528685	0.690576	0.785414
	C8341	C	0.521923	0.252319	0.798982
	C8342	C	0.526805	0.252823	0.789760
	C8343	C	0.528551	0.315166	0.785384
	C8344	C	0.527815	0.190908	0.785310
	C8345	C	0.614438	0.043133	0.815496
	C8346	C	0.614465	0.962401	0.815500
	C8347	C	0.509886	0.043463	0.813597
	C8348	C	0.509855	0.962445	0.813595
	C8349	C	0.496191	0.043254	0.808064
	C8350	C	0.496187	0.962550	0.808063
	C8351	C	0.493633	0.462542	0.811441
	C8352	C	0.623041	0.462646	0.814352
	C8353	C	0.610366	0.462325	0.816708
	C8354	C	0.493685	0.543204	0.811437
	C8355	C	0.610359	0.543368	0.816703
	C8356	C	0.623016	0.543479	0.814326
	C8357	C	0.592182	0.753723	0.827446
	C8358	C	0.592210	0.252371	0.827445
	C8359	C	0.587257	0.753632	0.836670
	C8360	C	0.585829	0.691525	0.841084
	C8361	C	0.585858	0.815887	0.841065
	C8362	C	0.587310	0.252496	0.836679
	C8363	C	0.585916	0.190460	0.841119
	C8364	C	0.585762	0.314751	0.841076
	C8365	C	0.592968	0.252357	0.800158
	C8366	C	0.583410	0.754117	0.763731
	C8367	C	0.537751	0.751894	0.763092
	C8368	C	0.530640	0.752988	0.862664
	C8369	C	0.589148	0.692041	0.786287
	C8370	C	0.588810	0.816407	0.786297
	C8371	C	0.586872	0.754242	0.773125
	C8372	C	0.532644	0.752173	0.772302
	C8373	C	0.531634	0.690332	0.776785
	C8374	C	0.587741	0.692074	0.777565
	C8375	C	0.587387	0.816397	0.777580
	C8376	C	0.530619	0.814389	0.776640
	C8377	C	0.589621	0.754230	0.790742
	C8378	C	0.576255	0.753363	0.863313
	C8379	C	0.582876	0.691463	0.849706
	C8380	C	0.582922	0.815822	0.849695
	C8381	C	0.581463	0.753575	0.854111
	C8382	C	0.551467	0.462467	0.874999
	C8383	C	0.563651	0.462426	0.749162
	C8384	C	0.549938	0.462553	0.877784
	C8385	C	0.551479	0.543169	0.874962
	C8386	C	0.549910	0.543472	0.877775
	C8387	C	0.563649	0.543389	0.749149
	C8388	C	0.576348	0.252938	0.863329
	C8389	C	0.582915	0.190620	0.849742
	C8390	C	0.582778	0.315001	0.849698
	C8391	C	0.581391	0.252898	0.854119
	C8392	C	0.561339	0.043115	0.753255
	C8393	C	0.583477	0.251379	0.763723
	C8394	C	0.537840	0.253674	0.763110
	C8395	C	0.530505	0.253032	0.862680
	C8396	C	0.588683	0.189598	0.786320
	C8397	C	0.589129	0.313966	0.786265
	C8398	C	0.586828	0.251343	0.773116
	C8399	C	0.532706	0.253503	0.772320
	C8400	C	0.527280	0.753066	0.853250
	C8401	C	0.526739	0.815350	0.848816
	C8402	C	0.526586	0.690930	0.848810
	C8403	C	0.527140	0.253154	0.853275
	C8404	C	0.526564	0.315235	0.848791
	C8405	C	0.526514	0.190994	0.848841
	C8406	C	0.530816	0.191311	0.776691
	C8407	C	0.587243	0.189269	0.777597
	C8408	C	0.587720	0.313693	0.777538
	C8409	C	0.531563	0.315499	0.776765
	C8410	C	0.589522	0.251946	0.790742
	C8411	C	0.550810	0.043145	0.872543
	C8412	C	0.553611	0.043382	0.748049
	C8413	C	0.561342	0.962320	0.753271
	C8414	C	0.550830	0.962515	0.872557
	C8415	C	0.553589	0.962441	0.748050
	N8416	N	0.499087	0.070023	0.812354
	N8417	N	0.499081	0.935522	0.812355
	N8418	N	0.499097	0.435670	0.812378
	N8419	N	0.499171	0.570191	0.812359
	N8420	N	0.552742	0.435664	0.876594
	N8421	N	0.552801	0.570311	0.876574
	N8422	N	0.552790	0.070262	0.876565
	N8423	N	0.552823	0.935686	0.876564
	O8424	O	0.589946	0.694687	0.930276
	O8425	O	0.590063	0.811537	0.930294
	O8426	O	0.510747	0.694469	0.949391
	O8427	O	0.510984	0.811266	0.949321
	O8428	O	0.511046	0.194551	0.949275
	O8429	O	0.510710	0.311289	0.949381
	O8430	O	0.511298	0.694664	0.929341
	O8431	O	0.511282	0.811327	0.929303
	O8432	O	0.511214	0.194583	0.929294
	O8433	O	0.511391	0.311378	0.929344
	O8434	O	0.589445	0.694710	0.950221
	O8435	O	0.589593	0.811598	0.950233
	O8436	O	0.589775	0.194129	0.950245
	O8437	O	0.589422	0.310704	0.950133
	O8438	O	0.590159	0.193512	0.930282
	O8439	O	0.590101	0.310370	0.930232
	O8440	O	0.573497	0.695213	0.886817
	O8441	O	0.532633	0.694129	0.886477
	O8442	O	0.568351	0.694431	0.993091
	O8443	O	0.568673	0.811115	0.993137
	O8444	O	0.527348	0.695198	0.992851
	O8445	O	0.527801	0.811830	0.992828
	O8446	O	0.532383	0.810946	0.886457
	O8447	O	0.573372	0.811954	0.886806
	O8448	O	0.573395	0.194094	0.886776
	O8449	O	0.532321	0.194524	0.886481
	O8450	O	0.568696	0.195233	0.993099
	O8451	O	0.568238	0.312042	0.993046
	O8452	O	0.527861	0.194000	0.992800
	O8453	O	0.527450	0.310601	0.992797
	O8454	O	0.532543	0.311353	0.886487
	O8455	O	0.573557	0.310794	0.886761
	H8456	H	0.516671	0.643440	0.963258
	H8457	H	0.517727	0.862878	0.963205
	H8458	H	0.517457	0.142430	0.963199
	H8459	H	0.516747	0.362207	0.963275
	H8460	H	0.518877	0.862476	0.915649
	H8461	H	0.519599	0.642871	0.915700
	H8462	H	0.519164	0.362852	0.915692
	H8463	H	0.519209	0.143211	0.915735
	H8464	H	0.603341	0.064499	0.939653
	H8465	H	0.604356	0.064712	0.942129
	H8466	H	0.604307	0.941013	0.942141
	H8467	H	0.603301	0.941160	0.939657
	H8468	H	0.610046	0.064931	0.937574
	H8469	H	0.610042	0.941366	0.937560
	H8470	H	0.489521	0.065010	0.940814
	H8471	H	0.489440	0.941462	0.940834
	H8472	H	0.493209	0.064672	0.940541
	H8473	H	0.493276	0.941947	0.940563
	H8474	H	0.494873	0.064732	0.938581
	H8475	H	0.494969	0.941642	0.938604
	H8476	H	0.497288	0.441386	0.939225
	H8477	H	0.495112	0.441202	0.937092
	H8478	H	0.492553	0.441339	0.941747
	H8479	H	0.599700	0.441684	0.935376
	H8480	H	0.618562	0.441414	0.934884
	H8481	H	0.626569	0.440453	0.939436
	H8482	H	0.495117	0.564256	0.937122
	H8483	H	0.497431	0.564759	0.939295
	H8484	H	0.626657	0.564674	0.939433
	H8485	H	0.618613	0.564550	0.934860
	H8486	H	0.599626	0.564923	0.935417
	H8487	H	0.492576	0.565009	0.941728
	H8488	H	0.581078	0.643032	0.963828
	H8489	H	0.581716	0.862912	0.963887
	H8490	H	0.581814	0.142904	0.963926
	H8491	H	0.580757	0.362897	0.963750
	H8492	H	0.525441	0.642946	0.900192
	H8493	H	0.579741	0.643423	0.900722
	H8494	H	0.579591	0.863155	0.900677
	H8495	H	0.524562	0.862348	0.900131
	H8496	H	0.583674	0.643347	0.916397
	H8497	H	0.583644	0.863210	0.916356
	H8498	H	0.575528	0.642761	0.979360
	H8499	H	0.576233	0.863023	0.979411
	H8500	H	0.553513	0.441252	0.874134
	H8501	H	0.550680	0.441166	1.010158
	H8502	H	0.558840	0.440973	0.876104
	H8503	H	0.557707	0.441207	0.878109
	H8504	H	0.562186	0.440944	0.998547
	H8505	H	0.565907	0.441463	1.004516
	H8506	H	0.550697	0.564965	1.010135
	H8507	H	0.553546	0.564132	0.874092
	H8508	H	0.565988	0.564001	1.004519
	H8509	H	0.562312	0.564375	0.998565
	H8510	H	0.557889	0.564632	0.878132
	H8511	H	0.558989	0.564922	0.876068
	H8512	H	0.576308	0.143714	0.979444
	H8513	H	0.575238	0.363467	0.979289
	H8514	H	0.564026	0.064649	0.880852
	H8515	H	0.568145	0.064609	0.876025
	H8516	H	0.546637	0.064432	0.882046
	H8517	H	0.521702	0.863274	0.978885
	H8518	H	0.520605	0.643580	0.978961
	H8519	H	0.520795	0.361831	0.978951
	H8520	H	0.521549	0.142358	0.978872
	H8521	H	0.524758	0.143069	0.900208
	H8522	H	0.579602	0.142484	0.900642
	H8523	H	0.579882	0.361916	0.900710
	H8524	H	0.524724	0.362756	0.900164
	H8525	H	0.583551	0.142086	0.916326
	H8526	H	0.583832	0.361521	0.916378
	H8527	H	0.543808	0.064878	1.004119
	H8528	H	0.547606	0.064912	1.005124
	H8529	H	0.553038	0.064863	1.004051
	H8530	H	0.568014	0.941004	0.876017
	H8531	H	0.564000	0.941319	0.880835
	H8532	H	0.546633	0.940950	0.882072
	H8533	H	0.543755	0.941395	1.004107
	H8534	H	0.547467	0.941270	1.005135
	H8535	H	0.552942	0.940947	1.004046
	Zn8536	Zn	0.490485	0.680796	0.939104
	Zn8537	Zn	0.490490	0.825393	0.939060
	Zn8538	Zn	0.490424	0.180765	0.939037
	Zn8539	Zn	0.490566	0.325180	0.939104
	Zn8540	Zn	0.548108	0.680435	1.002971
	Zn8541	Zn	0.548316	0.825623	1.003033
	Zn8542	Zn	0.548394	0.180335	1.003023
	Zn8543	Zn	0.547953	0.325108	1.002996
	C8544	C	0.587702	0.753166	0.926716
	C8545	C	0.513139	0.752990	0.952936
	C8546	C	0.517106	0.753208	0.962312
	C8547	C	0.517821	0.691115	0.966758
	C8548	C	0.518385	0.815309	0.966722
	C8549	C	0.513092	0.252768	0.952899
	C8550	C	0.517081	0.252404	0.962259
	C8551	C	0.518278	0.190174	0.966688
	C8552	C	0.517851	0.314423	0.966726
	C8553	C	0.513969	0.752942	0.925832
	C8554	C	0.519144	0.752722	0.916639
	C8555	C	0.520403	0.814811	0.912215
	C8556	C	0.520853	0.690565	0.912254
	C8557	C	0.514000	0.253049	0.925833
	C8558	C	0.519157	0.253070	0.916640
	C8559	C	0.520573	0.315227	0.912242
	C8560	C	0.520546	0.190813	0.912266
	C8561	C	0.605644	0.043220	0.940803
	C8562	C	0.605618	0.962370	0.940808
	C8563	C	0.491138	0.043555	0.940268
	C8564	C	0.491148	0.962704	0.940269
	C8565	C	0.492783	0.043644	0.938275
	C8566	C	0.492812	0.962654	0.938277
	C8567	C	0.494731	0.462580	0.938416
	C8568	C	0.600328	0.462611	0.938529
	C8569	C	0.619378	0.462356	0.938020
	C8570	C	0.494714	0.543311	0.938415
	C8571	C	0.619390	0.543442	0.938019
	C8572	C	0.600334	0.543633	0.938545
	C8573	C	0.586741	0.753123	0.953712
	C8574	C	0.586849	0.252597	0.953681
	C8575	C	0.581555	0.752965	0.962930
	C8576	C	0.579890	0.690706	0.967307
	C8577	C	0.580242	0.815134	0.967340
	C8578	C	0.581518	0.253015	0.962870
	C8579	C	0.580284	0.190943	0.967322
	C8580	C	0.579679	0.315262	0.967231
	C8581	C	0.587812	0.251809	0.926687
	C8582	C	0.575635	0.753561	0.890390
	C8583	C	0.529992	0.752557	0.889973
	C8584	C	0.525273	0.753559	0.989270
	C8585	C	0.582695	0.691050	0.912917
	C8586	C	0.582555	0.815421	0.912888
	C8587	C	0.579617	0.753304	0.899758
	C8588	C	0.525161	0.752654	0.899212
	C8589	C	0.523915	0.690591	0.903633
	C8590	C	0.580659	0.691092	0.904207
	C8591	C	0.580496	0.815455	0.904179
	C8592	C	0.523458	0.814762	0.903598
	C8593	C	0.583571	0.753254	0.917354
	C8594	C	0.571005	0.752846	0.989601
	C8595	C	0.576928	0.690710	0.975934
	C8596	C	0.577294	0.815048	0.975968
	C8597	C	0.575683	0.752872	0.980372
	C8598	C	0.544531	0.462342	1.007577
	C8599	C	0.556824	0.462478	0.876959
	C8600	C	0.559835	0.462473	1.001900
	C8601	C	0.544556	0.543349	1.007580
	C8602	C	0.559875	0.542941	1.001889
	C8603	C	0.556897	0.543577	0.876959
	C8604	C	0.570950	0.253654	0.989562
	C8605	C	0.577301	0.191246	0.975942
	C8606	C	0.576702	0.315624	0.975857
	C8607	C	0.575640	0.253600	0.980309
	C8608	C	0.562585	0.043443	0.877948
	C8609	C	0.575683	0.252432	0.890356
	C8610	C	0.529919	0.252948	0.889993
	C8611	C	0.525362	0.252241	0.989214
	C8612	C	0.582607	0.189816	0.912853
	C8613	C	0.582769	0.313873	0.912884
	C8614	C	0.579630	0.252226	0.899722
	C8615	C	0.525044	0.252909	0.899229
	C8616	C	0.521201	0.753453	0.979913
	C8617	C	0.520479	0.815374	0.975432
	C8618	C	0.519905	0.691301	0.975469
	C8619	C	0.521226	0.252103	0.979840
	C8620	C	0.519979	0.314323	0.975429
	C8621	C	0.520392	0.189997	0.975391
	C8622	C	0.523522	0.190816	0.903646
	C8623	C	0.580532	0.190026	0.904146
	C8624	C	0.580684	0.314225	0.904182
	C8625	C	0.523529	0.315088	0.903618
	C8626	C	0.583668	0.251732	0.917324
	C8627	C	0.546379	0.043474	1.004216
	C8628	C	0.545141	0.043358	0.879175
	C8629	C	0.562574	0.962530	0.877952
	C8630	C	0.546347	0.962555	1.004202
	C8631	C	0.545147	0.962345	0.879180
	N8632	N	0.490491	0.070352	0.939043
	N8633	N	0.490490	0.935674	0.939071
	N8634	N	0.490432	0.435717	0.939114
	N8635	N	0.490411	0.570348	0.939119
	N8636	N	0.547864	0.435694	1.002997
	N8637	N	0.547923	0.570277	1.002991
	N8638	N	0.548374	0.070167	1.003030
	N8639	N	0.548305	0.935655	1.003037
	O8640	O	0.757413	0.694883	0.046915
	O8641	O	0.757639	0.811175	0.046840
	O8642	O	0.620411	0.695251	0.076333
	O8643	O	0.620629	0.811463	0.076272
	O8644	O	0.620487	0.195030	0.076363
	O8645	O	0.620668	0.311472	0.076274
	O8646	O	0.617844	0.694370	0.058284
	O8647	O	0.617857	0.811335	0.058238
	O8648	O	0.617952	0.194751	0.058260
	O8649	O	0.617848	0.311554	0.058235
	O8650	O	0.760125	0.695137	0.064977
	O8651	O	0.760074	0.811807	0.064932
	O8652	O	0.759971	0.194561	0.064938
	O8653	O	0.759852	0.311268	0.064882
	O8654	O	0.757538	0.194858	0.046954
	O8655	O	0.757501	0.311098	0.046916
	O8656	O	0.683229	0.694829	0.013749
	O8657	O	0.641419	0.693946	0.015785
	O8658	O	0.736522	0.695762	0.107406
	O8659	O	0.736363	0.812351	0.107375
	O8660	O	0.695049	0.694761	0.109385
	O8661	O	0.695059	0.811009	0.109425
	O8662	O	0.641281	0.810557	0.015777
	O8663	O	0.683021	0.811189	0.013789
	O8664	O	0.683155	0.194178	0.013817
	O8665	O	0.641380	0.194652	0.015808
	O8666	O	0.736472	0.194315	0.107395
	O8667	O	0.736665	0.311005	0.107406
	O8668	O	0.694917	0.195332	0.109451
	O8669	O	0.695028	0.311813	0.109442
	O8670	O	0.641406	0.311239	0.015795
	O8671	O	0.683142	0.310423	0.013819
	H8672	H	0.644707	0.644963	0.086837
	H8673	H	0.644370	0.861273	0.086964
	H8674	H	0.644550	0.145145	0.086931
	H8675	H	0.644767	0.362129	0.086831
	H8676	H	0.628302	0.862074	0.044929
	H8677	H	0.628093	0.642915	0.044963
	H8678	H	0.628141	0.362864	0.044937
	H8679	H	0.628521	0.143716	0.044996
	H8680	H	0.776282	0.065148	0.056293
	H8681	H	0.780000	0.065007	0.057940
	H8682	H	0.780039	0.942132	0.057940
	H8683	H	0.776288	0.941637	0.056313
	H8684	H	0.778472	0.065006	0.053523
	H8685	H	0.778409	0.941164	0.053561
	H8686	H	0.594341	0.064875	0.069903
	H8687	H	0.594328	0.941482	0.069906
	H8688	H	0.599012	0.064667	0.069476
	H8689	H	0.598981	0.941233	0.069485
	H8690	H	0.601021	0.064792	0.067050
	H8691	H	0.600881	0.941166	0.067003
	H8692	H	0.598241	0.441566	0.067500
	H8693	H	0.596975	0.441855	0.066693
	H8694	H	0.596935	0.441301	0.068633
	H8695	H	0.780622	0.441124	0.055246
	H8696	H	0.782465	0.441812	0.054822
	H8697	H	0.783947	0.441236	0.055110
	H8698	H	0.596877	0.565259	0.066660
	H8699	H	0.598264	0.565031	0.067482
	H8700	H	0.784065	0.564848	0.055157
	H8701	H	0.782649	0.564616	0.054806
	H8702	H	0.780633	0.564320	0.055221
	H8703	H	0.596932	0.564555	0.068631
	H8704	H	0.749879	0.643991	0.078285
	H8705	H	0.749447	0.863218	0.078197
	H8706	H	0.749781	0.143389	0.078281
	H8707	H	0.749561	0.362615	0.078252
	H8708	H	0.634957	0.642649	0.029542
	H8709	H	0.707102	0.644717	0.024346
	H8710	H	0.707376	0.861165	0.024276
	H8711	H	0.635234	0.861762	0.029526
	H8712	H	0.733404	0.645100	0.036378
	H8713	H	0.733689	0.860999	0.036299
	H8714	H	0.742797	0.644319	0.093690
	H8715	H	0.742258	0.863307	0.093612
	H8716	H	0.659036	0.441614	0.005118
	H8717	H	0.721196	0.442021	0.117126
	H8718	H	0.658607	0.441246	0.005497
	H8719	H	0.657869	0.441372	0.005535
	H8720	H	0.717602	0.441391	0.118219
	H8721	H	0.718295	0.441352	0.117413
	H8722	H	0.721137	0.565008	0.117152
	H8723	H	0.659090	0.564318	0.005164
	H8724	H	0.718240	0.564833	0.117379
	H8725	H	0.717746	0.564820	0.118225
	H8726	H	0.657876	0.565105	0.005523
	H8727	H	0.658706	0.564603	0.005492
	H8728	H	0.742749	0.143562	0.093685
	H8729	H	0.742548	0.362277	0.093662
	H8730	H	0.651696	0.064722	0.004371
	H8731	H	0.652359	0.064987	0.006500
	H8732	H	0.657644	0.064649	0.002562
	H8733	H	0.670778	0.861142	0.098961
	H8734	H	0.671090	0.645011	0.098821
	H8735	H	0.671032	0.361793	0.098891
	H8736	H	0.670842	0.145245	0.098940
	H8737	H	0.635574	0.143642	0.029589
	H8738	H	0.707467	0.144571	0.024303
	H8739	H	0.707198	0.360027	0.024350
	H8740	H	0.635204	0.362713	0.029529
	H8741	H	0.733657	0.144895	0.036331
	H8742	H	0.733452	0.360249	0.036399
	H8743	H	0.721406	0.064699	0.120459
	H8744	H	0.725567	0.064629	0.119252
	H8745	H	0.724513	0.064882	0.116469
	H8746	H	0.652386	0.941159	0.006540
	H8747	H	0.651656	0.941405	0.004392
	H8748	H	0.657598	0.941493	0.002582
	H8749	H	0.721442	0.941193	0.120483
	H8750	H	0.725511	0.941424	0.119273
	H8751	H	0.724618	0.941294	0.116424
	Zn8752	Zn	0.595535	0.680466	0.067664
	Zn8753	Zn	0.595591	0.825612	0.067650
	Zn8754	Zn	0.595659	0.180470	0.067656
	Zn8755	Zn	0.595695	0.325811	0.067673
	Zn8756	Zn	0.720051	0.681001	0.118060
	Zn8757	Zn	0.719977	0.825802	0.118079
	Zn8758	Zn	0.719861	0.180637	0.118078
	Zn8759	Zn	0.720099	0.325588	0.118047
	C8760	C	0.751069	0.753020	0.044222
	C8761	C	0.626890	0.753322	0.079008
	C8762	C	0.643045	0.753160	0.086130
	C8763	C	0.650555	0.691949	0.089512
	C8764	C	0.650361	0.814283	0.089577
	C8765	C	0.626946	0.253345	0.079012
	C8766	C	0.643095	0.253567	0.086128
	C8767	C	0.650448	0.192302	0.089560
	C8768	C	0.650556	0.314965	0.089519
	C8769	C	0.621151	0.752786	0.054904
	C8770	C	0.627804	0.752522	0.045871
	C8771	C	0.629939	0.814408	0.041515
	C8772	C	0.629813	0.690379	0.041533
	C8773	C	0.621214	0.253167	0.054887
	C8774	C	0.627849	0.253284	0.045864
	C8775	C	0.629860	0.315324	0.041518
	C8776	C	0.630086	0.191232	0.041550
	C8777	C	0.779328	0.043611	0.056711
	C8778	C	0.779346	0.962998	0.056719
	C8779	C	0.596322	0.043379	0.069156
	C8780	C	0.596317	0.962655	0.069146
	C8781	C	0.598272	0.043582	0.066663
	C8782	C	0.598261	0.962526	0.066656
	C8783	C	0.597041	0.462765	0.067257
	C8784	C	0.781186	0.462557	0.055579
	C8785	C	0.783101	0.462699	0.055116
	C8786	C	0.597010	0.543772	0.067230
	C8787	C	0.783153	0.543338	0.055119
	C8788	C	0.781165	0.543345	0.055568
	C8789	C	0.756772	0.753591	0.068318
	C8790	C	0.756598	0.252965	0.068278
	C8791	C	0.750106	0.753685	0.077348
	C8792	C	0.748109	0.691654	0.081698
	C8793	C	0.747861	0.815764	0.081644
	C8794	C	0.750033	0.253070	0.077298
	C8795	C	0.748047	0.191105	0.081676
	C8796	C	0.747910	0.314980	0.081647
	C8797	C	0.751151	0.252863	0.044253
	C8798	C	0.689451	0.753049	0.016484
	C8799	C	0.639461	0.752224	0.019349
	C8800	C	0.688606	0.752963	0.106741
	C8801	C	0.727549	0.691830	0.033687
	C8802	C	0.727721	0.814209	0.033635
	C8803	C	0.705577	0.752941	0.023613
	C8804	C	0.635241	0.752225	0.028596
	C8805	C	0.633564	0.690222	0.032972
	C8806	C	0.712984	0.691771	0.027010
	C8807	C	0.713121	0.814217	0.026967
	C8808	C	0.633713	0.814243	0.032956
	C8809	C	0.734940	0.753039	0.037091
	C8810	C	0.738242	0.754025	0.103821
	C8811	C	0.744292	0.691824	0.090251
	C8812	C	0.744010	0.815862	0.090199
	C8813	C	0.742525	0.753911	0.094594
	C8814	C	0.721509	0.463149	0.117626
	C8815	C	0.658167	0.462597	0.005427
	C8816	C	0.718601	0.462777	0.117899
	C8817	C	0.721497	0.543656	0.117615
	C8818	C	0.718626	0.543760	0.117875
	C8819	C	0.658177	0.543492	0.005432
	C8820	C	0.738404	0.252662	0.103833
	C8821	C	0.744305	0.190986	0.090233
	C8822	C	0.744152	0.314896	0.090206
	C8823	C	0.742643	0.252939	0.094579
	C8824	C	0.653525	0.043516	0.005372
	C8825	C	0.689572	0.252293	0.016493
	C8826	C	0.639567	0.252995	0.019371
	C8827	C	0.688578	0.253589	0.106753
	C8828	C	0.727740	0.191529	0.033680
	C8829	C	0.727602	0.313567	0.033715
	C8830	C	0.705723	0.252410	0.023608
	C8831	C	0.635315	0.253249	0.028609
	C8832	C	0.672458	0.753164	0.099621
	C8833	C	0.664981	0.814293	0.096238
	C8834	C	0.665181	0.691958	0.096171
	C8835	C	0.672459	0.253496	0.099612
	C8836	C	0.665125	0.314943	0.096201
	C8837	C	0.665027	0.192216	0.096234
	C8838	C	0.633868	0.191298	0.032995
	C8839	C	0.713205	0.191381	0.026987
	C8840	C	0.713051	0.313470	0.027031
	C8841	C	0.633655	0.315315	0.032967
	C8842	C	0.735056	0.252653	0.037104
	C8843	C	0.722614	0.043451	0.119397
	C8844	C	0.659523	0.043518	0.003608
	C8845	C	0.653535	0.962518	0.005386
	C8846	C	0.722618	0.962643	0.119408
	C8847	C	0.659524	0.962589	0.003599
	N8848	N	0.595491	0.070207	0.067685
	N8849	N	0.595421	0.935664	0.067659
	N8850	N	0.595431	0.435870	0.067677
	N8851	N	0.595355	0.570394	0.067661
	N8852	N	0.720189	0.435933	0.118071
	N8853	N	0.720187	0.570620	0.118062
	N8854	N	0.720094	0.070443	0.118080
	N8855	N	0.720150	0.935947	0.118077
	O8856	O	0.747066	0.694479	0.172528
	O8857	O	0.747124	0.811465	0.172506
	O8858	O	0.676402	0.694926	0.191158
	O8859	O	0.676378	0.811680	0.191232
	O8860	O	0.676409	0.194713	0.191206
	O8861	O	0.676499	0.311466	0.191150
	O8862	O	0.674196	0.695296	0.169958
	O8863	O	0.673951	0.811777	0.169920
	O8864	O	0.673969	0.194528	0.169931
	O8865	O	0.674286	0.311074	0.169977
	O8866	O	0.747286	0.694881	0.192695
	O8867	O	0.746769	0.811529	0.192589
	O8868	O	0.746881	0.194877	0.192595
	O8869	O	0.747081	0.311561	0.192687
	O8870	O	0.747094	0.194734	0.172490
	O8871	O	0.747063	0.311300	0.172437
	O8872	O	0.739077	0.695307	0.128667
	O8873	O	0.697929	0.694600	0.127527
	O8874	O	0.725966	0.695947	0.235527
	O8875	O	0.725585	0.812645	0.235498
	O8876	O	0.684780	0.693421	0.234974
	O8877	O	0.684119	0.810231	0.234989
	O8878	O	0.697712	0.811508	0.127500
	O8879	O	0.738774	0.812070	0.128716
	O8880	O	0.739000	0.194191	0.128647
	O8881	O	0.697672	0.195026	0.127479
	O8882	O	0.725606	0.193844	0.235482
	O8883	O	0.725888	0.310499	0.235522
	O8884	O	0.684275	0.195775	0.234984
	O8885	O	0.684619	0.312552	0.234965
	O8886	O	0.697952	0.311850	0.127550
	O8887	O	0.739203	0.311058	0.128620
	H8888	H	0.679617	0.642479	0.205180
	H8889	H	0.678775	0.862359	0.205305
	H8890	H	0.679086	0.143845	0.205312
	H8891	H	0.679651	0.363351	0.205159
	H8892	H	0.679978	0.862690	0.156139
	H8893	H	0.680420	0.643883	0.156245
	H8894	H	0.680621	0.362832	0.156247
	H8895	H	0.679647	0.143482	0.156091
	H8896	H	0.761429	0.064957	0.181022
	H8897	H	0.760351	0.064978	0.183418
	H8898	H	0.760315	0.941632	0.183459
	H8899	H	0.761511	0.941739	0.181066
	H8900	H	0.769441	0.065125	0.179976
	H8901	H	0.769339	0.941558	0.179952
	H8902	H	0.668878	0.065018	0.181452
	H8903	H	0.668849	0.941497	0.181452
	H8904	H	0.666248	0.065341	0.177761
	H8905	H	0.666353	0.941324	0.177776
	H8906	H	0.653501	0.065244	0.176276
	H8907	H	0.653524	0.941738	0.176255
	H8908	H	0.660863	0.441223	0.176851
	H8909	H	0.652438	0.441551	0.177148
	H8910	H	0.667779	0.441506	0.180648
	H8911	H	0.764365	0.440997	0.185407
	H8912	H	0.760040	0.441310	0.182475
	H8913	H	0.763059	0.442025	0.180340
	H8914	H	0.652482	0.564696	0.177053
	H8915	H	0.660874	0.564918	0.176776
	H8916	H	0.763070	0.565003	0.180361
	H8917	H	0.760054	0.564950	0.182476
	H8918	H	0.764461	0.564594	0.185388
	H8919	H	0.667793	0.564968	0.180638
	H8920	H	0.739822	0.643729	0.206406
	H8921	H	0.739490	0.863426	0.206288
	H8922	H	0.739392	0.142849	0.206283
	H8923	H	0.740119	0.362570	0.206416
	H8924	H	0.687609	0.643761	0.140865
	H8925	H	0.742203	0.643583	0.142718
	H8926	H	0.741397	0.863193	0.142784
	H8927	H	0.687165	0.862445	0.140744
	H8928	H	0.743068	0.643118	0.158450
	H8929	H	0.742350	0.862877	0.158515
	H8930	H	0.734259	0.644070	0.221902
	H8931	H	0.733934	0.863864	0.221829
	H8932	H	0.722643	0.442054	0.117732
	H8933	H	0.707465	0.441359	0.242631
	H8934	H	0.721924	0.441514	0.118894
	H8935	H	0.719747	0.441437	0.119094
	H8936	H	0.698148	0.441248	0.245758
	H8937	H	0.699632	0.440758	0.243461
	H8938	H	0.707300	0.564717	0.242611
	H8939	H	0.722603	0.565074	0.117755
	H8940	H	0.699614	0.564815	0.243470
	H8941	H	0.698329	0.564526	0.245768
	H8942	H	0.719637	0.565061	0.119069
	H8943	H	0.721733	0.565472	0.118867
	H8944	H	0.733708	0.142363	0.221801
	H8945	H	0.734463	0.362138	0.221925
	H8946	H	0.714109	0.065180	0.117281
	H8947	H	0.714822	0.064784	0.119395
	H8948	H	0.719785	0.065223	0.115642
	H8949	H	0.679593	0.861756	0.221028
	H8950	H	0.680468	0.641851	0.220901
	H8951	H	0.680467	0.363977	0.220899
	H8952	H	0.679855	0.144352	0.221020
	H8953	H	0.686724	0.143886	0.140678
	H8954	H	0.742057	0.142526	0.142690
	H8955	H	0.742080	0.362457	0.142679
	H8956	H	0.687714	0.363037	0.140842
	H8957	H	0.742910	0.142594	0.158408
	H8958	H	0.742897	0.362670	0.158418
	H8959	H	0.702722	0.064783	0.245047
	H8960	H	0.703010	0.064554	0.245672
	H8961	H	0.704947	0.064829	0.246009
	H8962	H	0.714805	0.941659	0.119338
	H8963	H	0.714128	0.941698	0.117251
	H8964	H	0.719833	0.941621	0.115653
	H8965	H	0.702714	0.941123	0.245021
	H8966	H	0.702933	0.941200	0.245638
	H8967	H	0.704957	0.941685	0.245991
	Zn8968	Zn	0.657516	0.680624	0.180580
	Zn8969	Zn	0.657377	0.825939	0.180587
	Zn8970	Zn	0.657368	0.180475	0.180590
	Zn8971	Zn	0.657527	0.325734	0.180584
	Zn8972	Zn	0.705199	0.680828	0.245220
	Zn8973	Zn	0.704545	0.825393	0.245227
	Zn8974	Zn	0.704588	0.180735	0.245220
	Zn8975	Zn	0.705078	0.325254	0.245248
	C8976	C	0.745300	0.752944	0.168910
	C8977	C	0.677671	0.753173	0.194840
	C8978	C	0.679472	0.752633	0.204293
	C8979	C	0.679693	0.690139	0.208705
	C8980	C	0.679204	0.814536	0.208780
	C8981	C	0.677832	0.253158	0.194825
	C8982	C	0.679674	0.253464	0.204284
	C8983	C	0.679463	0.191591	0.208777
	C8984	C	0.679772	0.315858	0.208693
	C8985	C	0.675955	0.753472	0.166376
	C8986	C	0.680186	0.753390	0.157124
	C8987	C	0.681646	0.815235	0.152731
	C8988	C	0.681892	0.691340	0.152794
	C8989	C	0.675965	0.252853	0.166386
	C8990	C	0.680186	0.253070	0.157130
	C8991	C	0.682008	0.315189	0.152794
	C8992	C	0.681451	0.191204	0.152703
	C8993	C	0.762649	0.043736	0.182372
	C8994	C	0.762610	0.962902	0.182388
	C8995	C	0.664979	0.043720	0.179865
	C8996	C	0.664982	0.962609	0.179873
	C8997	C	0.652080	0.043722	0.178405
	C8998	C	0.652076	0.963060	0.178404
	C8999	C	0.656972	0.462699	0.177926
	C9000	C	0.767445	0.462638	0.184721
	C9001	C	0.763062	0.462766	0.181776
	C9002	C	0.656993	0.543535	0.177899
	C9003	C	0.763083	0.543537	0.181779
	C9004	C	0.767497	0.543387	0.184716
	C9005	C	0.744543	0.753275	0.196163
	C9006	C	0.744491	0.253077	0.196162
	C9007	C	0.739766	0.753509	0.205397
	C9008	C	0.738481	0.691485	0.209832
	C9009	C	0.738292	0.815776	0.209781
	C9010	C	0.739710	0.252709	0.205401
	C9011	C	0.738185	0.190438	0.209772
	C9012	C	0.738539	0.314683	0.209846
	C9013	C	0.745349	0.252925	0.168826
	C9014	C	0.740254	0.753628	0.132350
	C9015	C	0.694536	0.753025	0.130880
	C9016	C	0.682647	0.751793	0.231373
	C9017	C	0.742651	0.690909	0.154980
	C9018	C	0.742241	0.815229	0.155011
	C9019	C	0.742120	0.753386	0.141818
	C9020	C	0.687789	0.753067	0.139886
	C9021	C	0.685746	0.691175	0.144248
	C9022	C	0.742334	0.691119	0.146244
	C9023	C	0.741904	0.815471	0.146278
	C9024	C	0.685525	0.815073	0.144187
	C9025	C	0.742662	0.752937	0.159460
	C9026	C	0.728540	0.754354	0.232030
	C9027	C	0.735464	0.691795	0.218447
	C9028	C	0.735293	0.816034	0.218403
	C9029	C	0.733846	0.754088	0.222842
	C9030	C	0.708418	0.462706	0.243922
	C9031	C	0.720680	0.462699	0.118758
	C9032	C	0.700546	0.462602	0.244785
	C9033	C	0.708406	0.543248	0.243914
	C9034	C	0.700605	0.543579	0.244794
	C9035	C	0.720653	0.543822	0.118748
	C9036	C	0.728484	0.252167	0.232018
	C9037	C	0.735166	0.190255	0.218390
	C9038	C	0.735549	0.314430	0.218463
	C9039	C	0.733787	0.252180	0.222830
	C9040	C	0.715982	0.043647	0.118269
	C9041	C	0.740377	0.252634	0.132279
	C9042	C	0.694491	0.253414	0.130879
	C9043	C	0.682704	0.254191	0.231356
	C9044	C	0.742662	0.190438	0.154922
	C9045	C	0.742627	0.314829	0.154917
	C9046	C	0.742327	0.252561	0.141728
	C9047	C	0.687707	0.253357	0.139882
	C9048	C	0.680001	0.751892	0.221934
	C9049	C	0.679533	0.814143	0.217509
	C9050	C	0.680056	0.689765	0.217438
	C9051	C	0.680097	0.254177	0.221917
	C9052	C	0.680069	0.316178	0.217426
	C9053	C	0.679731	0.191907	0.217506
	C9054	C	0.685252	0.191263	0.144151
	C9055	C	0.742334	0.190386	0.146189
	C9056	C	0.742315	0.314730	0.146185
	C9057	C	0.685820	0.315411	0.144242
	C9058	C	0.742737	0.252677	0.159382
	C9059	C	0.703269	0.043547	0.245333
	C9060	C	0.721640	0.043820	0.116581
	C9061	C	0.716000	0.962882	0.118265
	C9062	C	0.703251	0.962640	0.245311
	C9063	C	0.721699	0.962821	0.116583
	N9064	N	0.657596	0.070513	0.180593
	N9065	N	0.657588	0.936016	0.180601
	N9066	N	0.657667	0.435914	0.180564
	N9067	N	0.657659	0.570476	0.180554
	N9068	N	0.705174	0.435745	0.245258
	N9069	N	0.705196	0.570391	0.245261
	N9070	N	0.704511	0.070360	0.245278
	N9071	N	0.704559	0.935784	0.245232
	O9072	O	0.741126	0.695717	0.298943
	O9073	O	0.741522	0.812439	0.298936
	O9074	O	0.662552	0.693316	0.317954
	O9075	O	0.663153	0.810059	0.317917
	O9076	O	0.663198	0.196563	0.317883
	O9077	O	0.662618	0.313158	0.317933
	O9078	O	0.663083	0.693328	0.297963
	O9079	O	0.663476	0.810065	0.297992
	O9080	O	0.663612	0.196414	0.298044
	O9081	O	0.662954	0.313255	0.297994
	O9082	O	0.740946	0.696013	0.319013
	O9083	O	0.741133	0.812727	0.319015
	O9084	O	0.741244	0.193863	0.319030
	O9085	O	0.740805	0.310604	0.318935
	O9086	O	0.741607	0.193822	0.298920
	O9087	O	0.741332	0.310673	0.298958
	O9088	O	0.725755	0.696104	0.255415
	O9089	O	0.684756	0.693609	0.255108
	O9090	O	0.719955	0.695649	0.361838
	O9091	O	0.719719	0.812414	0.361858
	O9092	O	0.679081	0.694135	0.361471
	O9093	O	0.678903	0.811026	0.361430
	O9094	O	0.684297	0.810180	0.255076
	O9095	O	0.725306	0.812850	0.255440
	O9096	O	0.725227	0.193939	0.255422
	O9097	O	0.684295	0.195758	0.255155
	O9098	O	0.719928	0.194487	0.361891
	O9099	O	0.719965	0.311125	0.361911
	O9100	O	0.678956	0.196040	0.361442
	O9101	O	0.679087	0.312929	0.361440
	O9102	O	0.684641	0.312541	0.255135
	O9103	O	0.725534	0.310457	0.255431
	H9104	H	0.668546	0.641752	0.331907
	H9105	H	0.669731	0.861683	0.331813
	H9106	H	0.669638	0.145306	0.331806
	H9107	H	0.669184	0.365040	0.331870
	H9108	H	0.671596	0.861518	0.284337
	H9109	H	0.671210	0.641746	0.284304
	H9110	H	0.671081	0.365108	0.284348
	H9111	H	0.672004	0.145339	0.284434
	H9112	H	0.765045	0.064582	0.312420
	H9113	H	0.770018	0.064902	0.310425
	H9114	H	0.770237	0.941474	0.310426
	H9115	H	0.764984	0.941394	0.312402
	H9116	H	0.755307	0.064987	0.311316
	H9117	H	0.755419	0.941387	0.311311
	H9118	H	0.633716	0.065179	0.306525
	H9119	H	0.633680	0.941167	0.306479
	H9120	H	0.634594	0.064641	0.309673
	H9121	H	0.634666	0.941654	0.309642
	H9122	H	0.644769	0.064945	0.311421
	H9123	H	0.644747	0.941409	0.311460
	H9124	H	0.655501	0.441472	0.309447
	H9125	H	0.653663	0.441141	0.304782
	H9126	H	0.642723	0.441722	0.313308
	H9127	H	0.770041	0.441590	0.313586
	H9128	H	0.754227	0.441640	0.313752
	H9129	H	0.748012	0.441285	0.309861
	H9130	H	0.653931	0.564707	0.304751
	H9131	H	0.655537	0.564795	0.309438
	H9132	H	0.747922	0.565049	0.309824
	H9133	H	0.754226	0.565060	0.313710
	H9134	H	0.769920	0.564990	0.313590
	H9135	H	0.642833	0.565375	0.313291
	H9136	H	0.732850	0.644695	0.332666
	H9137	H	0.733287	0.864415	0.332705
	H9138	H	0.733545	0.142840	0.332724
	H9139	H	0.732677	0.362270	0.332592
	H9140	H	0.676849	0.641746	0.268782
	H9141	H	0.731846	0.644712	0.269311
	H9142	H	0.731736	0.864407	0.269339
	H9143	H	0.677223	0.861572	0.268817
	H9144	H	0.735402	0.644633	0.284993
	H9145	H	0.735335	0.864228	0.285014
	H9146	H	0.727079	0.644428	0.348154
	H9147	H	0.727460	0.864168	0.348208
	H9148	H	0.711754	0.441814	0.244258
	H9149	H	0.695029	0.441460	0.372885
	H9150	H	0.709899	0.441523	0.247392
	H9151	H	0.704167	0.441527	0.248043
	H9152	H	0.704218	0.441668	0.372646
	H9153	H	0.700778	0.441718	0.373803
	H9154	H	0.695145	0.564930	0.372911
	H9155	H	0.711727	0.564348	0.244243
	H9156	H	0.700895	0.565226	0.373758
	H9157	H	0.704269	0.565232	0.372666
	H9158	H	0.704206	0.564928	0.247991
	H9159	H	0.709858	0.565007	0.247374
	H9160	H	0.727984	0.143035	0.348223
	H9161	H	0.727078	0.362550	0.348113
	H9162	H	0.705818	0.064752	0.244780
	H9163	H	0.704424	0.064933	0.244557
	H9164	H	0.706125	0.064915	0.245632
	H9165	H	0.673433	0.861983	0.347476
	H9166	H	0.672310	0.642191	0.347619
	H9167	H	0.672929	0.364669	0.347573
	H9168	H	0.673324	0.145209	0.347490
	H9169	H	0.677567	0.144928	0.268927
	H9170	H	0.731613	0.142269	0.269381
	H9171	H	0.731428	0.361870	0.269345
	H9172	H	0.676686	0.365091	0.268797
	H9173	H	0.735404	0.142647	0.285055
	H9174	H	0.735079	0.361925	0.285045
	H9175	H	0.712832	0.065196	0.377465
	H9176	H	0.718947	0.065175	0.371400
	H9177	H	0.704771	0.064633	0.364144
	H9178	H	0.704405	0.941476	0.244487
	H9179	H	0.705894	0.941359	0.244734
	H9180	H	0.706269	0.941524	0.245622
	H9181	H	0.712747	0.941824	0.377479
	H9182	H	0.718901	0.941372	0.371418
	H9183	H	0.704740	0.941635	0.364218
	Zn9184	Zn	0.642033	0.680672	0.307694
	Zn9185	Zn	0.642708	0.825757	0.307730
	Zn9186	Zn	0.642678	0.180767	0.307745
	Zn9187	Zn	0.641842	0.326008	0.307686
	Zn9188	Zn	0.699513	0.680702	0.371725
	Zn9189	Zn	0.699170	0.825553	0.371698
	Zn9190	Zn	0.699235	0.180938	0.371674
	Zn9191	Zn	0.699475	0.325618	0.371746
	C9192	C	0.739176	0.754158	0.295351
	C9193	C	0.665108	0.751626	0.321516
	C9194	C	0.669107	0.751696	0.330880
	C9195	C	0.669702	0.689641	0.335363
	C9196	C	0.670350	0.813935	0.335309
	C9197	C	0.665180	0.254899	0.321489
	C9198	C	0.669292	0.255153	0.330848
	C9199	C	0.670384	0.193025	0.335288
	C9200	C	0.670145	0.317171	0.335335
	C9201	C	0.666008	0.751673	0.294495
	C9202	C	0.671279	0.751643	0.285287
	C9203	C	0.672896	0.813764	0.280885
	C9204	C	0.672650	0.689516	0.280870
	C9205	C	0.666013	0.254938	0.294535
	C9206	C	0.671303	0.255248	0.285330
	C9207	C	0.672575	0.317380	0.280900
	C9208	C	0.673114	0.193042	0.280958
	C9209	C	0.766113	0.043565	0.310837
	C9210	C	0.766110	0.962803	0.310828
	C9211	C	0.636390	0.043620	0.307989
	C9212	C	0.636423	0.962786	0.307979
	C9213	C	0.646562	0.043682	0.309766
	C9214	C	0.646558	0.962622	0.309778
	C9215	C	0.651286	0.462728	0.307258
	C9216	C	0.769775	0.462660	0.310962
	C9217	C	0.753877	0.462593	0.311116
	C9218	C	0.651348	0.543521	0.307252
	C9219	C	0.753826	0.543601	0.311104
	C9220	C	0.769684	0.543793	0.310961
	C9221	C	0.738354	0.754453	0.322508
	C9222	C	0.738391	0.252297	0.322478
	C9223	C	0.733255	0.754583	0.331713
	C9224	C	0.731612	0.692417	0.336099
	C9225	C	0.731826	0.816539	0.336134
	C9226	C	0.733285	0.252510	0.331684
	C9227	C	0.731994	0.190557	0.336131
	C9228	C	0.731587	0.314647	0.336062
	C9229	C	0.739263	0.252272	0.295359
	C9230	C	0.727794	0.754534	0.258999
	C9231	C	0.682024	0.751820	0.258606
	C9232	C	0.676806	0.752458	0.357874
	C9233	C	0.734465	0.692422	0.281516
	C9234	C	0.734424	0.816590	0.281533
	C9235	C	0.731745	0.754662	0.268363
	C9236	C	0.677152	0.751677	0.267839
	C9237	C	0.675643	0.689503	0.272244
	C9238	C	0.732636	0.692482	0.272806
	C9239	C	0.732571	0.816692	0.272822
	C9240	C	0.675864	0.813821	0.272260
	C9241	C	0.735306	0.754438	0.285970
	C9242	C	0.722367	0.754163	0.358346
	C9243	C	0.728563	0.692232	0.344715
	C9244	C	0.728782	0.816525	0.344750
	C9245	C	0.727277	0.754355	0.349132
	C9246	C	0.695947	0.462757	0.371954
	C9247	C	0.706536	0.462606	0.247065
	C9248	C	0.701717	0.462971	0.372830
	C9249	C	0.695974	0.543605	0.371969
	C9250	C	0.701770	0.543704	0.372829
	C9251	C	0.706574	0.543607	0.247057
	C9252	C	0.722538	0.252828	0.358385
	C9253	C	0.729023	0.190714	0.344753
	C9254	C	0.728638	0.314808	0.344691
	C9255	C	0.727443	0.252827	0.349142
	C9256	C	0.704948	0.043454	0.244821
	C9257	C	0.727620	0.252114	0.259012
	C9258	C	0.681972	0.254314	0.258662
	C9259	C	0.676869	0.254554	0.357859
	C9260	C	0.734461	0.190187	0.281550
	C9261	C	0.734302	0.314366	0.281541
	C9262	C	0.731562	0.252101	0.268387
	C9263	C	0.677183	0.254873	0.267898
	C9264	C	0.672866	0.752119	0.348489
	C9265	C	0.672279	0.814183	0.344019
	C9266	C	0.671630	0.689840	0.344078
	C9267	C	0.673028	0.254857	0.348464
	C9268	C	0.672119	0.317066	0.344052
	C9269	C	0.672299	0.192856	0.344001
	C9270	C	0.676093	0.192811	0.272338
	C9271	C	0.732527	0.190086	0.272846
	C9272	C	0.732395	0.314201	0.272833
	C9273	C	0.675570	0.317298	0.272272
	C9274	C	0.735331	0.252321	0.285981
	C9275	C	0.711466	0.043903	0.373699
	C9276	C	0.705272	0.043512	0.245668
	C9277	C	0.704948	0.962670	0.244781
	C9278	C	0.711465	0.962798	0.373720
	C9279	C	0.705299	0.962646	0.245663
	N9280	N	0.642688	0.070486	0.307719
	N9281	N	0.642740	0.935947	0.307754
	N9282	N	0.641837	0.435931	0.307732
	N9283	N	0.641953	0.570441	0.307718
	N9284	N	0.699416	0.435987	0.371741
	N9285	N	0.699460	0.570545	0.371738
	N9286	N	0.699164	0.070623	0.371655
	N9287	N	0.699125	0.935977	0.371696
	O9288	O	0.734324	0.694030	0.425539
	O9289	O	0.733900	0.810975	0.425644
	O9290	O	0.657058	0.695447	0.444450
	O9291	O	0.656974	0.812309	0.444460
	O9292	O	0.656877	0.194375	0.444483
	O9293	O	0.657131	0.311230	0.444523
	O9294	O	0.657479	0.695040	0.424463
	O9295	O	0.657265	0.811738	0.424328
	O9296	O	0.657061	0.194422	0.424325
	O9297	O	0.657520	0.311062	0.424419
	O9298	O	0.733827	0.694352	0.445666
	O9299	O	0.733782	0.810991	0.445681
	O9300	O	0.733918	0.195445	0.445726
	O9301	O	0.734154	0.312192	0.445743
	O9302	O	0.733877	0.195063	0.425629
	O9303	O	0.734042	0.311726	0.425593
	O9304	O	0.719815	0.695690	0.382007
	O9305	O	0.678778	0.694124	0.381527
	O9306	O	0.712427	0.694696	0.488584
	O9307	O	0.712562	0.811436	0.488531
	O9308	O	0.671521	0.695388	0.488041
	O9309	O	0.671561	0.812085	0.488067
	O9310	O	0.678527	0.810836	0.381538
	O9311	O	0.719501	0.812319	0.382046
	O9312	O	0.719428	0.194210	0.382034
	O9313	O	0.678459	0.195021	0.381461
	O9314	O	0.712680	0.195665	0.488583
	O9315	O	0.712562	0.312448	0.488583
	O9316	O	0.671602	0.194458	0.488118
	O9317	O	0.671562	0.311311	0.488072
	O9318	O	0.678698	0.311853	0.381533
	O9319	O	0.719730	0.310804	0.382008
	H9320	H	0.663104	0.644469	0.458364
	H9321	H	0.662657	0.864138	0.458428
	H9322	H	0.662522	0.142429	0.458450
	H9323	H	0.663092	0.362481	0.458459
	H9324	H	0.664575	0.862573	0.410643
	H9325	H	0.665563	0.643041	0.410796
	H9326	H	0.665536	0.362793	0.410733
	H9327	H	0.664757	0.142823	0.410615
	H9328	H	0.763002	0.064727	0.436217
	H9329	H	0.760430	0.064933	0.433512
	H9330	H	0.760619	0.941751	0.433454
	H9331	H	0.763022	0.941493	0.436212
	H9332	H	0.756568	0.064897	0.439161
	H9333	H	0.756621	0.941321	0.439210
	H9334	H	0.626125	0.064973	0.437346
	H9335	H	0.626116	0.941504	0.437354
	H9336	H	0.636077	0.065195	0.439426
	H9337	H	0.636157	0.941706	0.439443
	H9338	H	0.649027	0.064727	0.436187
	H9339	H	0.648985	0.941916	0.436217
	H9340	H	0.623456	0.441456	0.430693
	H9341	H	0.621505	0.441525	0.435915
	H9342	H	0.640431	0.441805	0.428153
	H9343	H	0.747429	0.442036	0.433084
	H9344	H	0.758703	0.441335	0.432363
	H9345	H	0.764094	0.441647	0.434894
	H9346	H	0.621486	0.565046	0.435945
	H9347	H	0.623405	0.564649	0.430684
	H9348	H	0.764071	0.564796	0.434873
	H9349	H	0.758677	0.565233	0.432350
	H9350	H	0.747542	0.565003	0.433078
	H9351	H	0.640396	0.565028	0.428185
	H9352	H	0.726472	0.642818	0.459426
	H9353	H	0.725834	0.862413	0.459337
	H9354	H	0.725967	0.143961	0.459424
	H9355	H	0.726324	0.363696	0.459410
	H9356	H	0.671321	0.642644	0.395271
	H9357	H	0.725746	0.643850	0.395940
	H9358	H	0.724544	0.863408	0.396090
	H9359	H	0.670294	0.862320	0.395151
	H9360	H	0.729003	0.643174	0.411627
	H9361	H	0.727771	0.862582	0.411777
	H9362	H	0.720717	0.642851	0.474919
	H9363	H	0.720100	0.862505	0.474868
	H9364	H	0.694349	0.441444	0.371166
	H9365	H	0.686244	0.441427	0.494659
	H9366	H	0.698988	0.441308	0.369641
	H9367	H	0.703149	0.441479	0.370302
	H9368	H	0.686258	0.441846	0.501997
	H9369	H	0.681094	0.441431	0.499013
	H9370	H	0.686158	0.565116	0.494679
	H9371	H	0.694290	0.564778	0.371173
	H9372	H	0.680966	0.565328	0.499086
	H9373	H	0.686202	0.564656	0.502031
	H9374	H	0.703255	0.565023	0.370285
	H9375	H	0.698973	0.564803	0.369611
	H9376	H	0.720296	0.144275	0.474917
	H9377	H	0.720577	0.363827	0.474937
	H9378	H	0.679885	0.065325	0.373336
	H9379	H	0.690198	0.065294	0.378561
	H9380	H	0.688276	0.064839	0.364986
	H9381	H	0.665707	0.863945	0.474135
	H9382	H	0.666144	0.644283	0.474056
	H9383	H	0.666201	0.362499	0.474143
	H9384	H	0.665657	0.142364	0.474167
	H9385	H	0.670472	0.143325	0.395107
	H9386	H	0.724606	0.142909	0.396037
	H9387	H	0.725556	0.362265	0.395872
	H9388	H	0.671304	0.363007	0.395222
	H9389	H	0.727635	0.143255	0.411706
	H9390	H	0.728554	0.362781	0.411598
	H9391	H	0.696217	0.065147	0.495213
	H9392	H	0.688476	0.064566	0.494943
	H9393	H	0.682737	0.065381	0.498422
	H9394	H	0.690122	0.941821	0.378622
	H9395	H	0.679821	0.941527	0.373306
	H9396	H	0.688300	0.941515	0.365023
	H9397	H	0.696139	0.941415	0.495198
	H9398	H	0.688382	0.941544	0.494958
	H9399	H	0.682694	0.941821	0.498473
	Zn9400	Zn	0.636792	0.680790	0.434244
	Zn9401	Zn	0.636718	0.825687	0.434176
	Zn9402	Zn	0.636548	0.180893	0.434187
	Zn9403	Zn	0.636918	0.325797	0.434247
	Zn9404	Zn	0.691665	0.680939	0.498379
	Zn9405	Zn	0.691876	0.825752	0.498346
	Zn9406	Zn	0.691904	0.180921	0.498363
	Zn9407	Zn	0.691734	0.325836	0.498391
	C9408	C	0.732019	0.752596	0.422018
	C9409	C	0.659154	0.753914	0.448040
	C9410	C	0.662869	0.754166	0.457430
	C9411	C	0.663727	0.692098	0.461869
	C9412	C	0.663477	0.816370	0.461906
	C9413	C	0.659123	0.252696	0.448086
	C9414	C	0.662760	0.252442	0.457482
	C9415	C	0.663422	0.190164	0.461941
	C9416	C	0.663703	0.314695	0.461930
	C9417	C	0.659955	0.753149	0.420888
	C9418	C	0.664924	0.752729	0.411663
	C9419	C	0.666122	0.814783	0.407222
	C9420	C	0.666663	0.690595	0.407299
	C9421	C	0.659909	0.252801	0.420864
	C9422	C	0.664897	0.252894	0.411649
	C9423	C	0.666658	0.315108	0.407272
	C9424	C	0.666230	0.190779	0.407207
	C9425	C	0.759798	0.043557	0.435126
	C9426	C	0.759863	0.962901	0.435121
	C9427	C	0.632552	0.043834	0.437280
	C9428	C	0.632546	0.962815	0.437267
	C9429	C	0.645465	0.043835	0.434037
	C9430	C	0.645510	0.963072	0.434031
	C9431	C	0.626187	0.462938	0.433565
	C9432	C	0.748337	0.462917	0.434958
	C9433	C	0.759600	0.462802	0.434206
	C9434	C	0.626211	0.543746	0.433571
	C9435	C	0.759597	0.543730	0.434219
	C9436	C	0.748362	0.543681	0.434956
	C9437	C	0.731257	0.752640	0.449187
	C9438	C	0.731388	0.253820	0.449233
	C9439	C	0.726382	0.752664	0.458413
	C9440	C	0.725024	0.690579	0.462841
	C9441	C	0.724675	0.814698	0.462797
	C9442	C	0.726391	0.253860	0.458443
	C9443	C	0.724760	0.191786	0.462856
	C9444	C	0.724970	0.316028	0.462857
	C9445	C	0.731808	0.253366	0.422025
	C9446	C	0.721780	0.753977	0.385630
	C9447	C	0.676016	0.752374	0.385029
	C9448	C	0.669482	0.753792	0.484452
	C9449	C	0.727959	0.690919	0.408159
	C9450	C	0.727284	0.815173	0.408242
	C9451	C	0.725333	0.753678	0.395027
	C9452	C	0.670935	0.752383	0.394236
	C9453	C	0.669744	0.690463	0.398684
	C9454	C	0.726353	0.691415	0.399446
	C9455	C	0.725671	0.815556	0.399527
	C9456	C	0.669172	0.814555	0.398607
	C9457	C	0.728454	0.752879	0.412629
	C9458	C	0.715165	0.752969	0.485061
	C9459	C	0.721960	0.690632	0.471459
	C9460	C	0.721633	0.814820	0.471421
	C9461	C	0.720347	0.752816	0.475847
	C9462	C	0.690931	0.462984	0.495535
	C9463	C	0.700644	0.462783	0.370430
	C9464	C	0.685744	0.462913	0.499951
	C9465	C	0.690895	0.543542	0.495536
	C9466	C	0.685708	0.543788	0.499966
	C9467	C	0.700675	0.543719	0.370424
	C9468	C	0.715258	0.254103	0.485089
	C9469	C	0.721683	0.191875	0.471466
	C9470	C	0.721874	0.316187	0.471471
	C9471	C	0.720271	0.254082	0.475855
	C9472	C	0.688753	0.043818	0.374825
	C9473	C	0.721697	0.252467	0.385617
	C9474	C	0.675896	0.253367	0.384980
	C9475	C	0.669465	0.252772	0.484507
	C9476	C	0.727163	0.191008	0.408213
	C9477	C	0.727643	0.314958	0.408137
	C9478	C	0.725169	0.252515	0.395021
	C9479	C	0.670911	0.253247	0.394212
	C9480	C	0.665921	0.754021	0.475055
	C9481	C	0.665078	0.816276	0.470629
	C9482	C	0.665336	0.692027	0.470584
	C9483	C	0.665916	0.252507	0.475103
	C9484	C	0.665372	0.314721	0.470651
	C9485	C	0.665064	0.190167	0.470668
	C9486	C	0.669255	0.190953	0.398585
	C9487	C	0.725572	0.190645	0.399500
	C9488	C	0.726086	0.314752	0.399422
	C9489	C	0.669696	0.315226	0.398655
	C9490	C	0.728194	0.253103	0.412639
	C9491	C	0.692219	0.043591	0.495946
	C9492	C	0.697209	0.043531	0.366445
	C9493	C	0.688733	0.962961	0.374843
	C9494	C	0.692181	0.962900	0.495945
	C9495	C	0.697208	0.962977	0.366463
	N9496	N	0.636539	0.070773	0.434192
	N9497	N	0.636590	0.936142	0.434186
	N9498	N	0.636808	0.435838	0.434269
	N9499	N	0.636725	0.570435	0.434268
	N9500	N	0.691637	0.435984	0.498352
	N9501	N	0.691593	0.570573	0.498373
	N9502	N	0.691824	0.070603	0.498382
	N9503	N	0.691795	0.936013	0.498382
	O9504	O	0.728395	0.694312	0.552100
	O9505	O	0.728002	0.810992	0.552129
	O9506	O	0.649877	0.695486	0.571106
	O9507	O	0.649566	0.812200	0.571149
	O9508	O	0.649708	0.193990	0.571149
	O9509	O	0.649919	0.310642	0.571126
	O9510	O	0.650079	0.695677	0.551133
	O9511	O	0.649911	0.812259	0.551086
	O9512	O	0.649862	0.193852	0.551077
	O9513	O	0.650353	0.310502	0.551171
	O9514	O	0.727957	0.694360	0.572157
	O9515	O	0.727573	0.811092	0.572112
	O9516	O	0.727631	0.195419	0.572098
	O9517	O	0.727986	0.312280	0.572134
	O9518	O	0.728039	0.194861	0.552121
	O9519	O	0.728170	0.311544	0.552118
	O9520	O	0.712270	0.694872	0.508617
	O9521	O	0.671229	0.695223	0.508261
	O9522	O	0.706751	0.694766	0.615032
	O9523	O	0.706801	0.811424	0.615027
	O9524	O	0.665825	0.695005	0.614614
	O9525	O	0.665789	0.811700	0.614630
	O9526	O	0.671160	0.812097	0.508212
	O9527	O	0.712058	0.811489	0.508658
	O9528	O	0.712166	0.194975	0.508631
	O9529	O	0.671226	0.194109	0.508248
	O9530	O	0.706636	0.194888	0.614990
	O9531	O	0.706820	0.311619	0.614993
	O9532	O	0.665752	0.194507	0.614682
	O9533	O	0.665903	0.311104	0.614610
	O9534	O	0.671170	0.310959	0.508230
	O9535	O	0.712001	0.311556	0.508616
	H9536	H	0.656214	0.643818	0.585015
	H9537	H	0.655833	0.863605	0.585067
	H9538	H	0.655486	0.142744	0.585097
	H9539	H	0.656461	0.361994	0.585012
	H9540	H	0.657326	0.863845	0.537365
	H9541	H	0.658673	0.644028	0.537524
	H9542	H	0.658493	0.362159	0.537486
	H9543	H	0.657472	0.142655	0.537407
	H9544	H	0.754093	0.065234	0.561806
	H9545	H	0.750910	0.064690	0.560285
	H9546	H	0.750960	0.941189	0.560280
	H9547	H	0.754227	0.941471	0.561795
	H9548	H	0.751844	0.065070	0.564321
	H9549	H	0.751809	0.941569	0.564365
	H9550	H	0.622838	0.065185	0.563619
	H9551	H	0.622750	0.941405	0.563616
	H9552	H	0.630426	0.064790	0.564612
	H9553	H	0.630329	0.941652	0.564616
	H9554	H	0.638334	0.064530	0.561760
	H9555	H	0.638231	0.941234	0.561769
	H9556	H	0.627883	0.441062	0.556039
	H9557	H	0.619072	0.441380	0.558093
	H9558	H	0.640554	0.441714	0.558802
	H9559	H	0.741988	0.441675	0.560144
	H9560	H	0.751357	0.441087	0.559137
	H9561	H	0.756645	0.441698	0.561097
	H9562	H	0.619076	0.564375	0.558103
	H9563	H	0.627901	0.564995	0.556039
	H9564	H	0.756742	0.564778	0.561157
	H9565	H	0.751514	0.565499	0.559138
	H9566	H	0.742035	0.564467	0.560163
	H9567	H	0.640399	0.564654	0.558820
	H9568	H	0.719928	0.642972	0.585812
	H9569	H	0.719863	0.862568	0.585785
	H9570	H	0.719451	0.144009	0.585698
	H9571	H	0.720344	0.363386	0.585814
	H9572	H	0.664308	0.643910	0.521999
	H9573	H	0.719165	0.643250	0.522493
	H9574	H	0.717500	0.862508	0.522593
	H9575	H	0.662995	0.863785	0.521847
	H9576	H	0.722845	0.642880	0.538170
	H9577	H	0.721273	0.862180	0.538272
	H9578	H	0.714365	0.643053	0.601335
	H9579	H	0.714317	0.862724	0.601296
	H9580	H	0.695194	0.441729	0.494425
	H9581	H	0.687436	0.441356	0.622635
	H9582	H	0.702340	0.441379	0.498442
	H9583	H	0.698572	0.441549	0.501656
	H9584	H	0.680770	0.441217	0.625534
	H9585	H	0.681319	0.441171	0.623617
	H9586	H	0.687380	0.565070	0.622611
	H9587	H	0.695180	0.564798	0.494401
	H9588	H	0.681321	0.564938	0.623620
	H9589	H	0.680876	0.564737	0.625505
	H9590	H	0.698603	0.565099	0.501661
	H9591	H	0.702345	0.565097	0.498439
	H9592	H	0.713917	0.143355	0.601227
	H9593	H	0.714780	0.363091	0.601354
	H9594	H	0.696787	0.064415	0.501529
	H9595	H	0.701021	0.065323	0.498992
	H9596	H	0.686243	0.065351	0.501188
	H9597	H	0.659585	0.863459	0.600730
	H9598	H	0.659968	0.643732	0.600727
	H9599	H	0.660097	0.362354	0.600674
	H9600	H	0.659124	0.142857	0.600782
	H9601	H	0.663079	0.142927	0.521897
	H9602	H	0.717919	0.143682	0.522552
	H9603	H	0.718821	0.363151	0.522503
	H9604	H	0.664084	0.362208	0.521983
	H9605	H	0.721641	0.143639	0.538217
	H9606	H	0.722645	0.363092	0.538191
	H9607	H	0.689840	0.064783	0.628026
	H9608	H	0.694494	0.065001	0.625904
	H9609	H	0.691185	0.065051	0.622191
	H9610	H	0.700872	0.941705	0.498926
	H9611	H	0.696703	0.941444	0.501473
	H9612	H	0.686240	0.941786	0.501209
	H9613	H	0.689817	0.941243	0.628041
	H9614	H	0.694573	0.941354	0.625893
	H9615	H	0.691185	0.941816	0.622147
	Zn9616	Zn	0.629449	0.680534	0.560884
	Zn9617	Zn	0.629159	0.825430	0.560905
	Zn9618	Zn	0.629081	0.180569	0.560888
	Zn9619	Zn	0.629464	0.325415	0.560922
	Zn9620	Zn	0.686242	0.680749	0.624872
	Zn9621	Zn	0.686183	0.825339	0.624882
	Zn9622	Zn	0.686302	0.180760	0.624877
	Zn9623	Zn	0.686315	0.325321	0.624826
	C9624	C	0.725968	0.752650	0.548529
	C9625	C	0.651981	0.753805	0.574699
	C9626	C	0.655871	0.753665	0.584067
	C9627	C	0.656945	0.691527	0.588513
	C9628	C	0.656721	0.815767	0.588529
	C9629	C	0.652021	0.252322	0.574726
	C9630	C	0.655838	0.252335	0.584116
	C9631	C	0.656516	0.190356	0.588583
	C9632	C	0.657055	0.314420	0.588524
	C9633	C	0.652648	0.753916	0.547603
	C9634	C	0.657766	0.753977	0.538390
	C9635	C	0.658957	0.816064	0.533941
	C9636	C	0.659691	0.691782	0.534039
	C9637	C	0.652727	0.252291	0.547633
	C9638	C	0.657804	0.252459	0.538423
	C9639	C	0.659500	0.314513	0.534033
	C9640	C	0.658956	0.190410	0.533988
	C9641	C	0.751417	0.043606	0.561387
	C9642	C	0.751476	0.962630	0.561394
	C9643	C	0.627224	0.043260	0.563285
	C9644	C	0.627184	0.962533	0.563267
	C9645	C	0.635167	0.043390	0.560406
	C9646	C	0.635167	0.962581	0.560424
	C9647	C	0.625037	0.462668	0.558069
	C9648	C	0.743142	0.463038	0.561734
	C9649	C	0.752656	0.462560	0.560708
	C9650	C	0.625023	0.543603	0.558076
	C9651	C	0.752699	0.543651	0.560704
	C9652	C	0.743217	0.543294	0.561728
	C9653	C	0.725113	0.752688	0.575628
	C9654	C	0.725117	0.253856	0.575603
	C9655	C	0.720084	0.752709	0.584833
	C9656	C	0.718632	0.690730	0.589251
	C9657	C	0.718602	0.814824	0.589235
	C9658	C	0.720063	0.253650	0.584823
	C9659	C	0.718385	0.191465	0.589196
	C9660	C	0.718827	0.315688	0.589255
	C9661	C	0.725918	0.253212	0.548533
	C9662	C	0.714444	0.753110	0.512216
	C9663	C	0.668599	0.753754	0.511727
	C9664	C	0.663599	0.753405	0.611033
	C9665	C	0.721550	0.690632	0.534703
	C9666	C	0.720670	0.814691	0.534762
	C9667	C	0.718263	0.752953	0.521580
	C9668	C	0.663762	0.753796	0.520962
	C9669	C	0.662698	0.691709	0.525418
	C9670	C	0.719605	0.690846	0.526000
	C9671	C	0.718720	0.814797	0.526056
	C9672	C	0.661990	0.816020	0.525321
	C9673	C	0.722044	0.752638	0.539170
	C9674	C	0.709363	0.753082	0.611517
	C9675	C	0.715654	0.690791	0.597876
	C9676	C	0.715659	0.814947	0.597860
	C9677	C	0.714248	0.752932	0.602281
	C9678	C	0.688529	0.462733	0.623623
	C9679	C	0.698127	0.462776	0.499611
	C9680	C	0.682423	0.462572	0.624644
	C9681	C	0.688524	0.543619	0.623640
	C9682	C	0.682424	0.543469	0.624639
	C9683	C	0.698133	0.543791	0.499618
	C9684	C	0.709263	0.253198	0.611488
	C9685	C	0.715427	0.191214	0.597817
	C9686	C	0.715886	0.315410	0.597884
	C9687	C	0.714190	0.253171	0.602258
	C9688	C	0.697018	0.043637	0.499737
	C9689	C	0.714303	0.253331	0.512201
	C9690	C	0.668622	0.252565	0.511739
	C9691	C	0.663540	0.252688	0.611067
	C9692	C	0.720920	0.191324	0.534718
	C9693	C	0.721479	0.315510	0.534699
	C9694	C	0.718296	0.253402	0.521560
	C9695	C	0.663665	0.252642	0.520976
	C9696	C	0.659671	0.753567	0.601660
	C9697	C	0.658643	0.815782	0.597236
	C9698	C	0.658856	0.691436	0.597225
	C9699	C	0.659563	0.252589	0.601713
	C9700	C	0.658940	0.314477	0.597229
	C9701	C	0.658431	0.190476	0.597287
	C9702	C	0.661986	0.190557	0.525363
	C9703	C	0.718993	0.191402	0.526013
	C9704	C	0.719523	0.315466	0.525991
	C9705	C	0.662538	0.314553	0.525413
	C9706	C	0.722069	0.253376	0.539156
	C9707	C	0.690607	0.043548	0.626428
	C9708	C	0.686416	0.043854	0.499425
	C9709	C	0.697007	0.962990	0.499730
	C9710	C	0.690631	0.962652	0.626432
	C9711	C	0.686425	0.962750	0.499424
	N9712	N	0.629074	0.070112	0.560891
	N9713	N	0.629086	0.935491	0.560898
	N9714	N	0.629385	0.435870	0.560878
	N9715	N	0.629378	0.570473	0.560882
	N9716	N	0.686329	0.435692	0.624837
	N9717	N	0.686277	0.570319	0.624833
	N9718	N	0.686269	0.070567	0.624905
	N9719	N	0.686249	0.935914	0.624899
	O9720	O	0.720586	0.694316	0.678811
	O9721	O	0.720234	0.811147	0.678783
	O9722	O	0.644057	0.695054	0.697663
	O9723	O	0.643964	0.811734	0.697704
	O9724	O	0.643822	0.194077	0.697701
	O9725	O	0.644003	0.310908	0.697703
	O9726	O	0.644475	0.694722	0.677543
	O9727	O	0.644345	0.811593	0.677510
	O9728	O	0.644209	0.194685	0.677493
	O9729	O	0.644465	0.311221	0.677514
	O9730	O	0.720129	0.694283	0.698929
	O9731	O	0.720041	0.811021	0.698867
	O9732	O	0.720124	0.194856	0.698897
	O9733	O	0.720220	0.311525	0.698921
	O9734	O	0.720468	0.194945	0.678797
	O9735	O	0.720547	0.311760	0.678761
	O9736	O	0.706521	0.694320	0.635146
	O9737	O	0.665505	0.694471	0.634691
	O9738	O	0.698597	0.694378	0.741727
	O9739	O	0.698779	0.811070	0.741782
	O9740	O	0.657698	0.694674	0.741300
	O9741	O	0.657531	0.811407	0.741308
	O9742	O	0.665296	0.811382	0.634634
	O9743	O	0.706372	0.811125	0.635201
	O9744	O	0.706392	0.195065	0.635175
	O9745	O	0.665329	0.194844	0.634638
	O9746	O	0.698786	0.194483	0.741785
	O9747	O	0.698841	0.311451	0.741779
	O9748	O	0.657738	0.194964	0.741329
	O9749	O	0.657969	0.311595	0.741251
	O9750	O	0.665563	0.311491	0.634644
	O9751	O	0.706582	0.311649	0.635137
	H9752	H	0.649491	0.643105	0.711603
	H9753	H	0.649151	0.862904	0.711668
	H9754	H	0.648708	0.142820	0.711683
	H9755	H	0.650018	0.362510	0.711606
	H9756	H	0.651428	0.863193	0.663774
	H9757	H	0.652520	0.643114	0.663909
	H9758	H	0.652310	0.362852	0.663864
	H9759	H	0.651802	0.143265	0.663841
	H9760	H	0.737549	0.064819	0.686610
	H9761	H	0.733916	0.064466	0.688386
	H9762	H	0.733871	0.941630	0.688385
	H9763	H	0.737376	0.941113	0.686595
	H9764	H	0.745365	0.065264	0.687118
	H9765	H	0.745241	0.941353	0.687062
	H9766	H	0.629545	0.064788	0.684186
	H9767	H	0.629639	0.941628	0.684188
	H9768	H	0.621426	0.064489	0.683567
	H9769	H	0.621346	0.941310	0.683528
	H9770	H	0.614066	0.064601	0.686944
	H9771	H	0.614015	0.941097	0.686903
	H9772	H	0.611184	0.441010	0.686278
	H9773	H	0.613894	0.441393	0.690515
	H9774	H	0.621982	0.441209	0.682233
	H9775	H	0.745184	0.441105	0.694036
	H9776	H	0.730333	0.441041	0.692279
	H9777	H	0.727658	0.441375	0.687976
	H9778	H	0.613839	0.564625	0.690530
	H9779	H	0.611179	0.564804	0.686272
	H9780	H	0.727647	0.564763	0.688000
	H9781	H	0.730546	0.564981	0.692281
	H9782	H	0.745149	0.565080	0.693998
	H9783	H	0.621931	0.564787	0.682211
	H9784	H	0.712432	0.642793	0.712621
	H9785	H	0.712212	0.862430	0.712539
	H9786	H	0.712097	0.143060	0.712594
	H9787	H	0.712595	0.362872	0.712628
	H9788	H	0.658153	0.642995	0.648400
	H9789	H	0.712139	0.642529	0.649160
	H9790	H	0.711619	0.862355	0.649147
	H9791	H	0.657012	0.863041	0.648250
	H9792	H	0.715131	0.642646	0.664866
	H9793	H	0.714511	0.862476	0.664855
	H9794	H	0.706732	0.643046	0.728130
	H9795	H	0.706486	0.862585	0.728037
	H9796	H	0.691237	0.441541	0.623779
	H9797	H	0.683488	0.441445	0.750712
	H9798	H	0.690665	0.441633	0.626369
	H9799	H	0.686226	0.441419	0.627101
	H9800	H	0.673441	0.441449	0.750176
	H9801	H	0.677749	0.441202	0.749271
	H9802	H	0.683556	0.564677	0.750690
	H9803	H	0.691395	0.564970	0.623760
	H9804	H	0.677671	0.564551	0.749261
	H9805	H	0.673320	0.564314	0.750199
	H9806	H	0.686090	0.564701	0.627090
	H9807	H	0.690457	0.564687	0.626377
	H9808	H	0.706282	0.143114	0.728102
	H9809	H	0.706783	0.362796	0.728129
	H9810	H	0.677677	0.064505	0.624522
	H9811	H	0.680100	0.064393	0.627209
	H9812	H	0.684180	0.064963	0.621590
	H9813	H	0.651961	0.862704	0.727391
	H9814	H	0.652329	0.642918	0.727332
	H9815	H	0.652855	0.362737	0.727294
	H9816	H	0.651540	0.143012	0.727384
	H9817	H	0.657378	0.143340	0.648309
	H9818	H	0.711863	0.143684	0.649101
	H9819	H	0.712388	0.363180	0.649113
	H9820	H	0.657860	0.362961	0.648359
	H9821	H	0.714746	0.143505	0.664821
	H9822	H	0.715239	0.362885	0.664824
	H9823	H	0.682683	0.064478	0.745302
	H9824	H	0.668826	0.064639	0.746009
	H9825	H	0.661769	0.064459	0.753021
	H9826	H	0.680119	0.940966	0.627274
	H9827	H	0.677637	0.941148	0.624529
	H9828	H	0.684120	0.941554	0.621566
	H9829	H	0.682609	0.941560	0.745253
	H9830	H	0.668822	0.941214	0.745986
	H9831	H	0.661862	0.941348	0.753007
	Zn9832	Zn	0.623959	0.680773	0.687362
	Zn9833	Zn	0.623792	0.825164	0.687345
	Zn9834	Zn	0.623836	0.180470	0.687355
	Zn9835	Zn	0.623992	0.324930	0.687360
	Zn9836	Zn	0.678033	0.680934	0.751600
	Zn9837	Zn	0.678014	0.825558	0.751576
	Zn9838	Zn	0.678029	0.180503	0.751573
	Zn9839	Zn	0.678118	0.325044	0.751556
	C9840	C	0.718340	0.752620	0.675205
	C9841	C	0.646001	0.753319	0.701285
	C9842	C	0.649402	0.753088	0.710684
	C9843	C	0.650113	0.690779	0.715116
	C9844	C	0.649917	0.815150	0.715159
	C9845	C	0.645964	0.252513	0.701292
	C9846	C	0.649382	0.252591	0.710692
	C9847	C	0.649714	0.190534	0.715153
	C9848	C	0.650424	0.314815	0.715108
	C9849	C	0.646913	0.753148	0.674013
	C9850	C	0.651891	0.753232	0.664799
	C9851	C	0.653010	0.815376	0.660359
	C9852	C	0.653607	0.690880	0.660438
	C9853	C	0.646909	0.252959	0.673988
	C9854	C	0.651799	0.252955	0.664773
	C9855	C	0.653424	0.315112	0.660393
	C9856	C	0.653179	0.190883	0.660379
	C9857	C	0.736979	0.043458	0.687896
	C9858	C	0.736909	0.962701	0.687911
	C9859	C	0.625072	0.043445	0.684790
	C9860	C	0.625079	0.962704	0.684793
	C9861	C	0.617727	0.043362	0.688187
	C9862	C	0.617699	0.962468	0.688181
	C9863	C	0.615557	0.462579	0.688125
	C9864	C	0.746919	0.462487	0.691614
	C9865	C	0.732089	0.462745	0.689846
	C9866	C	0.615532	0.543352	0.688127
	C9867	C	0.732149	0.543477	0.689855
	C9868	C	0.746926	0.543461	0.691613
	C9869	C	0.717471	0.752675	0.702396
	C9870	C	0.717586	0.253130	0.702420
	C9871	C	0.712506	0.752570	0.711614
	C9872	C	0.711073	0.690576	0.716049
	C9873	C	0.710931	0.814645	0.715989
	C9874	C	0.712678	0.252997	0.711652
	C9875	C	0.710994	0.190828	0.716049
	C9876	C	0.711258	0.315137	0.716062
	C9877	C	0.718462	0.253333	0.675181
	C9878	C	0.708431	0.752639	0.638775
	C9879	C	0.662792	0.752979	0.638153
	C9880	C	0.655593	0.753015	0.737708
	C9881	C	0.714289	0.690326	0.661371
	C9882	C	0.713932	0.814754	0.661357
	C9883	C	0.711927	0.752507	0.648188
	C9884	C	0.657701	0.753029	0.647373
	C9885	C	0.656557	0.690758	0.651821
	C9886	C	0.712784	0.690353	0.652652
	C9887	C	0.712431	0.814668	0.652636
	C9888	C	0.655972	0.815308	0.651735
	C9889	C	0.714794	0.752572	0.665814
	C9890	C	0.701322	0.752764	0.738245
	C9891	C	0.707961	0.690648	0.724668
	C9892	C	0.707830	0.814829	0.724604
	C9893	C	0.706380	0.752873	0.729036
	C9894	C	0.682009	0.462777	0.751669
	C9895	C	0.687829	0.462794	0.626242
	C9896	C	0.676250	0.462563	0.750235
	C9897	C	0.682080	0.543506	0.751664
	C9898	C	0.676214	0.543418	0.750244
	C9899	C	0.687756	0.543505	0.626241
	C9900	C	0.701429	0.252950	0.738297
	C9901	C	0.707938	0.190818	0.724668
	C9902	C	0.708220	0.315155	0.724686
	C9903	C	0.706648	0.252960	0.729082
	C9904	C	0.680810	0.043358	0.625626
	C9905	C	0.708613	0.253395	0.638758
	C9906	C	0.662723	0.253193	0.638129
	C9907	C	0.655787	0.253156	0.737687
	C9908	C	0.714158	0.191191	0.661316
	C9909	C	0.714458	0.315294	0.661319
	C9910	C	0.712103	0.253371	0.648151
	C9911	C	0.657759	0.253045	0.647349
	C9912	C	0.652157	0.752824	0.728303
	C9913	C	0.651348	0.815007	0.723878
	C9914	C	0.651549	0.690653	0.723839
	C9915	C	0.652209	0.252848	0.728301
	C9916	C	0.651914	0.314899	0.723826
	C9917	C	0.651180	0.190642	0.723872
	C9918	C	0.656170	0.191063	0.651763
	C9919	C	0.712676	0.191275	0.652594
	C9920	C	0.712955	0.315405	0.652600
	C9921	C	0.656440	0.315107	0.651777
	C9922	C	0.715061	0.253213	0.665770
	C9923	C	0.676329	0.043592	0.747214
	C9924	C	0.687305	0.043603	0.622677
	C9925	C	0.680802	0.962569	0.625628
	C9926	C	0.676331	0.962654	0.747209
	C9927	C	0.687272	0.962810	0.622679
	N9928	N	0.623902	0.070306	0.687340
	N9929	N	0.623905	0.935698	0.687329
	N9930	N	0.624056	0.435678	0.687380
	N9931	N	0.624021	0.570388	0.687373
	N9932	N	0.678133	0.435716	0.751587
	N9933	N	0.678163	0.570379	0.751590
	N9934	N	0.678015	0.070403	0.751564
	N9935	N	0.678040	0.935858	0.751533
	O9936	O	0.714960	0.695046	0.805315
	O9937	O	0.715029	0.811895	0.805300
	O9938	O	0.635389	0.693699	0.824294
	O9939	O	0.635901	0.810455	0.824277
	O9940	O	0.635751	0.195043	0.824237
	O9941	O	0.635456	0.311735	0.824321
	O9942	O	0.635817	0.693613	0.804232
	O9943	O	0.636243	0.810356	0.804362
	O9944	O	0.636035	0.195343	0.804299
	O9945	O	0.635753	0.311890	0.804243
	O9946	O	0.714359	0.695231	0.825179
	O9947	O	0.714666	0.812053	0.825252
	O9948	O	0.714635	0.193800	0.825208
	O9949	O	0.714418	0.310725	0.825198
	O9950	O	0.715094	0.194268	0.805277
	O9951	O	0.714718	0.311207	0.805339
	O9952	O	0.698614	0.694760	0.761850
	O9953	O	0.657770	0.694507	0.761470
	O9954	O	0.693228	0.694331	0.868124
	O9955	O	0.693044	0.811067	0.868079
	O9956	O	0.652320	0.694292	0.867775
	O9957	O	0.652128	0.811034	0.867766
	O9958	O	0.657596	0.811187	0.761469
	O9959	O	0.698360	0.811422	0.761820
	O9960	O	0.698493	0.194762	0.761797
	O9961	O	0.657473	0.194911	0.761424
	O9962	O	0.693053	0.194395	0.868035
	O9963	O	0.693220	0.311210	0.868068
	O9964	O	0.652119	0.194026	0.867794
	O9965	O	0.652153	0.310932	0.867795
	O9966	O	0.657478	0.311526	0.761410
	O9967	O	0.698211	0.311603	0.761879
	H9968	H	0.641849	0.642297	0.838203
	H9969	H	0.641660	0.862052	0.838224
	H9970	H	0.642054	0.143143	0.838142
	H9971	H	0.642109	0.362705	0.838217
	H9972	H	0.644241	0.861817	0.790733
	H9973	H	0.643689	0.642554	0.790542
	H9974	H	0.643909	0.363224	0.790588
	H9975	H	0.644315	0.143799	0.790668
	H9976	H	0.747527	0.064720	0.812461
	H9977	H	0.737360	0.064653	0.809904
	H9978	H	0.737274	0.941741	0.809861
	H9979	H	0.747477	0.941724	0.812456
	H9980	H	0.747029	0.064821	0.818979
	H9981	H	0.747047	0.941341	0.818975
	H9982	H	0.621000	0.064726	0.814368
	H9983	H	0.621079	0.941047	0.814348
	H9984	H	0.619585	0.064759	0.812527
	H9985	H	0.619686	0.941111	0.812512
	H9986	H	0.613164	0.064405	0.811901
	H9987	H	0.613109	0.941191	0.811886
	H9988	H	0.614653	0.440753	0.809261
	H9989	H	0.605407	0.441549	0.810945
	H9990	H	0.626271	0.441146	0.812445
	H9991	H	0.718166	0.441286	0.814129
	H9992	H	0.732357	0.441395	0.808708
	H9993	H	0.746474	0.441298	0.810392
	H9994	H	0.605286	0.564538	0.810957
	H9995	H	0.614531	0.565212	0.809217
	H9996	H	0.746602	0.564900	0.810378
	H9997	H	0.732389	0.564683	0.808703
	H9998	H	0.718141	0.564706	0.814116
	H9999	H	0.626265	0.565032	0.812414
	H10000	H	0.706045	0.643312	0.838803
	H10001	H	0.706471	0.863307	0.838923
	H10002	H	0.706002	0.142363	0.838817
	H10003	H	0.706032	0.362201	0.838775
	H10004	H	0.649519	0.643146	0.775033
	H10005	H	0.704625	0.643588	0.775779
	H10006	H	0.704686	0.863264	0.775707
	H10007	H	0.650090	0.862324	0.775230
	H10008	H	0.708424	0.643667	0.791464
	H10009	H	0.708589	0.863530	0.791401
	H10010	H	0.700189	0.642961	0.854305
	H10011	H	0.700580	0.862838	0.854412
	H10012	H	0.683387	0.441526	0.752685
	H10013	H	0.669777	0.441394	0.875639
	H10014	H	0.677467	0.441050	0.753877
	H10015	H	0.673243	0.441302	0.752838
	H10016	H	0.669028	0.441096	0.880058
	H10017	H	0.666116	0.441016	0.878206
	H10018	H	0.669741	0.564595	0.875629
	H10019	H	0.683464	0.564760	0.752659
	H10020	H	0.666108	0.564695	0.878187
	H10021	H	0.669022	0.564772	0.880066
	H10022	H	0.673287	0.564702	0.752885
	H10023	H	0.677541	0.565070	0.753907
	H10024	H	0.700387	0.142701	0.854307
	H10025	H	0.700436	0.362677	0.854296
	H10026	H	0.689444	0.065345	0.756426
	H10027	H	0.694667	0.064890	0.751310
	H10028	H	0.670652	0.064993	0.757416
	H10029	H	0.645617	0.861991	0.853862
	H10030	H	0.645853	0.642560	0.853894
	H10031	H	0.645966	0.362477	0.853913
	H10032	H	0.645916	0.142509	0.853819
	H10033	H	0.650148	0.143653	0.775162
	H10034	H	0.704919	0.143294	0.775734
	H10035	H	0.704151	0.362729	0.775758
	H10036	H	0.649710	0.363094	0.775083
	H10037	H	0.708796	0.143081	0.791385
	H10038	H	0.707958	0.362831	0.791444
	H10039	H	0.680195	0.064931	0.879977
	H10040	H	0.681358	0.064735	0.877060
	H10041	H	0.673373	0.064602	0.874464
	H10042	H	0.694644	0.941382	0.751284
	H10043	H	0.689611	0.941270	0.756396
	H10044	H	0.670597	0.941381	0.757396
	H10045	H	0.679988	0.940760	0.879951
	H10046	H	0.681282	0.941462	0.877061
	H10047	H	0.673373	0.941314	0.874474
	Zn10048	Zn	0.614942	0.680674	0.814061
	Zn10049	Zn	0.615371	0.825508	0.814061
	Zn10050	Zn	0.615286	0.180209	0.814017
	Zn10051	Zn	0.615013	0.325141	0.814080
	Zn10052	Zn	0.672783	0.680179	0.877989
	Zn10053	Zn	0.672745	0.825605	0.877958
	Zn10054	Zn	0.672926	0.180154	0.877943
	Zn10055	Zn	0.672676	0.325479	0.877935
	C10056	C	0.712695	0.753502	0.801744
	C10057	C	0.637803	0.752021	0.827875
	C10058	C	0.641847	0.752168	0.837224
	C10059	C	0.642835	0.690072	0.841675
	C10060	C	0.642718	0.814220	0.841683
	C10061	C	0.637929	0.253214	0.827854
	C10062	C	0.641909	0.252951	0.837236
	C10063	C	0.642931	0.190732	0.841664
	C10064	C	0.642946	0.315004	0.841707
	C10065	C	0.638685	0.752098	0.800799
	C10066	C	0.643888	0.752196	0.791610
	C10067	C	0.645538	0.814303	0.787257
	C10068	C	0.645225	0.690348	0.787140
	C10069	C	0.638621	0.253618	0.800777
	C10070	C	0.643875	0.253548	0.791588
	C10071	C	0.645315	0.315481	0.787161
	C10072	C	0.645568	0.191466	0.787211
	C10073	C	0.740636	0.043360	0.812309
	C10074	C	0.740652	0.962872	0.812303
	C10075	C	0.618998	0.043333	0.813591
	C10076	C	0.619023	0.962340	0.813582
	C10077	C	0.612503	0.043255	0.812958
	C10078	C	0.612479	0.962549	0.812947
	C10079	C	0.611286	0.462471	0.811130
	C10080	C	0.723998	0.462576	0.816593
	C10081	C	0.738371	0.462621	0.811132
	C10082	C	0.611197	0.543299	0.811117
	C10083	C	0.738365	0.543503	0.811131
	C10084	C	0.723988	0.543459	0.816581
	C10085	C	0.711800	0.753554	0.828704
	C10086	C	0.711749	0.252225	0.828662
	C10087	C	0.706386	0.753332	0.837894
	C10088	C	0.704723	0.691074	0.842268
	C10089	C	0.704946	0.815409	0.842328
	C10090	C	0.706465	0.252323	0.837859
	C10091	C	0.704876	0.190157	0.842263
	C10092	C	0.704838	0.314655	0.842247
	C10093	C	0.712637	0.252770	0.801745
	C10094	C	0.700710	0.753171	0.765422
	C10095	C	0.655147	0.752811	0.764981
	C10096	C	0.649914	0.752559	0.864193
	C10097	C	0.707545	0.691465	0.787969
	C10098	C	0.707618	0.815703	0.787929
	C10099	C	0.704718	0.753340	0.774791
	C10100	C	0.650077	0.752733	0.774197
	C10101	C	0.648398	0.690602	0.778530
	C10102	C	0.705550	0.691322	0.779257
	C10103	C	0.705618	0.815614	0.779215
	C10104	C	0.648689	0.814513	0.778644
	C10105	C	0.708537	0.753635	0.792387
	C10106	C	0.695641	0.752643	0.864591
	C10107	C	0.701694	0.690840	0.850894
	C10108	C	0.701898	0.815099	0.850954
	C10109	C	0.700426	0.752793	0.855346
	C10110	C	0.672490	0.462529	0.876226
	C10111	C	0.676055	0.462384	0.752915
	C10112	C	0.668906	0.462434	0.878814
	C10113	C	0.672544	0.543225	0.876243
	C10114	C	0.668915	0.543290	0.878827
	C10115	C	0.676123	0.543431	0.752932
	C10116	C	0.695649	0.252825	0.864542
	C10117	C	0.701801	0.190420	0.850879
	C10118	C	0.701769	0.314803	0.850876
	C10119	C	0.700461	0.252643	0.855290
	C10120	C	0.688353	0.043605	0.753276
	C10121	C	0.700557	0.253064	0.765421
	C10122	C	0.654914	0.253255	0.764920
	C10123	C	0.649872	0.252474	0.864223
	C10124	C	0.707691	0.190860	0.787936
	C10125	C	0.707226	0.315153	0.787967
	C10126	C	0.704446	0.252998	0.774804
	C10127	C	0.649972	0.253372	0.774155
	C10128	C	0.645788	0.752257	0.854828
	C10129	C	0.644772	0.814282	0.850386
	C10130	C	0.644877	0.690205	0.850387
	C10131	C	0.645822	0.252553	0.854850
	C10132	C	0.644922	0.314779	0.850419
	C10133	C	0.644914	0.190493	0.850373
	C10134	C	0.648638	0.191399	0.778593
	C10135	C	0.705615	0.190859	0.779232
	C10136	C	0.705158	0.315139	0.779257
	C10137	C	0.648410	0.315438	0.778547
	C10138	C	0.708433	0.252900	0.792392
	C10139	C	0.678674	0.043448	0.878374
	C10140	C	0.669306	0.043464	0.754256
	C10141	C	0.688381	0.962766	0.753263
	C10142	C	0.678574	0.962430	0.878374
	C10143	C	0.669296	0.962678	0.754256
	N10144	N	0.615352	0.070158	0.814025
	N10145	N	0.615390	0.935654	0.814025
	N10146	N	0.614902	0.435566	0.814088
	N10147	N	0.614814	0.570163	0.814074
	N10148	N	0.672639	0.435550	0.877957
	N10149	N	0.672610	0.570045	0.877955
	N10150	N	0.672835	0.070079	0.877933
	N10151	N	0.672761	0.935670	0.877920
	O10152	O	0.701366	0.694595	0.932037
	O10153	O	0.701585	0.811617	0.932077
	O10154	O	0.630772	0.694096	0.950765
	O10155	O	0.630758	0.810774	0.950798
	O10156	O	0.630850	0.195555	0.950806
	O10157	O	0.630556	0.312255	0.950780
	O10158	O	0.630774	0.694024	0.930549
	O10159	O	0.631031	0.810803	0.930620
	O10160	O	0.630882	0.194382	0.930604
	O10161	O	0.630802	0.311166	0.930552
	O10162	O	0.703834	0.694506	0.953285
	O10163	O	0.703872	0.811146	0.953277
	O10164	O	0.703783	0.194776	0.953273
	O10165	O	0.703925	0.311394	0.953311
	O10166	O	0.701567	0.195213	0.932016
	O10167	O	0.701490	0.312055	0.932026
	O10168	O	0.692942	0.694400	0.888253
	O10169	O	0.651575	0.694775	0.887652
	O10170	O	0.680247	0.694451	0.995716
	O10171	O	0.680195	0.811182	0.995741
	O10172	O	0.639110	0.694251	0.994621
	O10173	O	0.638987	0.811070	0.994600
	O10174	O	0.652066	0.811682	0.887725
	O10175	O	0.693250	0.811141	0.888191
	O10176	O	0.693238	0.195016	0.888175
	O10177	O	0.652104	0.194026	0.887677
	O10178	O	0.680213	0.194163	0.995720
	O10179	O	0.680154	0.311011	0.995733
	O10180	O	0.639049	0.195451	0.994604
	O10181	O	0.639021	0.312288	0.994612
	O10182	O	0.651709	0.310818	0.887623
	O10183	O	0.692888	0.311633	0.888208
	H10184	H	0.634965	0.642458	0.964820
	H10185	H	0.635427	0.862175	0.964799
	H10186	H	0.635705	0.144036	0.964802
	H10187	H	0.634737	0.364066	0.964845
	H10188	H	0.638422	0.862656	0.916875
	H10189	H	0.637817	0.642891	0.916800
	H10190	H	0.638234	0.362438	0.916843
	H10191	H	0.638255	0.142664	0.916864
	H10192	H	0.718424	0.064415	0.943003
	H10193	H	0.719705	0.064720	0.943430
	H10194	H	0.719895	0.940838	0.943453
	H10195	H	0.718545	0.940857	0.943008
	H10196	H	0.718737	0.064475	0.942022
	H10197	H	0.718954	0.941502	0.942058
	H10198	H	0.612318	0.064493	0.943424
	H10199	H	0.612451	0.940975	0.943437
	H10200	H	0.617253	0.064839	0.941898
	H10201	H	0.617359	0.941473	0.941878
	H10202	H	0.616006	0.064812	0.938509
	H10203	H	0.615918	0.941483	0.938508
	H10204	H	0.604731	0.441488	0.946549
	H10205	H	0.618594	0.440931	0.946185
	H10206	H	0.593783	0.441378	0.940302
	H10207	H	0.715821	0.441013	0.947061
	H10208	H	0.708247	0.440665	0.942326
	H10209	H	0.712841	0.440832	0.938795
	H10210	H	0.618628	0.564453	0.946231
	H10211	H	0.604730	0.564593	0.946580
	H10212	H	0.712832	0.564176	0.938759
	H10213	H	0.708093	0.564121	0.942286
	H10214	H	0.715834	0.564563	0.947112
	H10215	H	0.593851	0.565312	0.940337
	H10216	H	0.697712	0.643462	0.967045
	H10217	H	0.697420	0.862285	0.966968
	H10218	H	0.697893	0.143236	0.967031
	H10219	H	0.697603	0.362378	0.967022
	H10220	H	0.643377	0.643035	0.901274
	H10221	H	0.697312	0.643177	0.902282
	H10222	H	0.697785	0.863404	0.902268
	H10223	H	0.643990	0.862944	0.901359
	H10224	H	0.698173	0.643659	0.918024
	H10225	H	0.698609	0.863262	0.917996
	H10226	H	0.690624	0.643369	0.982433
	H10227	H	0.690363	0.862615	0.982382
	H10228	H	0.675111	0.441290	0.875629
	H10229	H	0.658532	0.440737	1.004880
	H10230	H	0.679143	0.440953	0.878129
	H10231	H	0.676492	0.441296	0.880065
	H10232	H	0.657220	0.441282	1.005185
	H10233	H	0.657574	0.441066	1.004905
	H10234	H	0.658642	0.564529	1.004888
	H10235	H	0.675265	0.564651	0.875624
	H10236	H	0.657635	0.564562	1.004935
	H10237	H	0.657342	0.564737	1.005187
	H10238	H	0.676463	0.564542	0.880058
	H10239	H	0.679084	0.564664	0.878205
	H10240	H	0.690763	0.142983	0.982425
	H10241	H	0.690454	0.362355	0.982447
	H10242	H	0.664793	0.064108	0.879411
	H10243	H	0.670722	0.064397	0.881336
	H10244	H	0.666444	0.064562	0.875460
	H10245	H	0.636272	0.862445	0.980507
	H10246	H	0.635984	0.642496	0.980564
	H10247	H	0.635710	0.363735	0.980573
	H10248	H	0.636574	0.144019	0.980540
	H10249	H	0.643848	0.142582	0.901359
	H10250	H	0.697538	0.143438	0.902272
	H10251	H	0.697549	0.363030	0.902222
	H10252	H	0.643791	0.362334	0.901321
	H10253	H	0.698500	0.143888	0.917993
	H10254	H	0.698516	0.363066	0.917956
	H10255	H	0.659399	0.064395	1.007755
	H10256	H	0.663716	0.064552	1.006449
	H10257	H	0.662769	0.065036	1.003503
	H10258	H	0.670623	0.940989	0.881298
	H10259	H	0.664885	0.941063	0.879395
	H10260	H	0.666472	0.940893	0.875453
	H10261	H	0.659435	0.941400	1.007712
	H10262	H	0.663793	0.941041	1.006402
	H10263	H	0.662711	0.940759	1.003490
	Zn10264	Zn	0.610395	0.680747	0.940482
	Zn10265	Zn	0.610634	0.825307	0.940486
	Zn10266	Zn	0.610650	0.180596	0.940543
	Zn10267	Zn	0.610402	0.325283	0.940436
	Zn10268	Zn	0.658173	0.680226	1.005170
	Zn10269	Zn	0.658048	0.825534	1.005189
	Zn10270	Zn	0.658064	0.180157	1.005206
	Zn10271	Zn	0.658163	0.325538	1.005208
	C10272	C	0.700109	0.753223	0.928413
	C10273	C	0.632584	0.752344	0.954414
	C10274	C	0.635233	0.752212	0.963864
	C10275	C	0.635347	0.690135	0.968331
	C10276	C	0.635583	0.814442	0.968303
	C10277	C	0.632548	0.254045	0.954415
	C10278	C	0.635271	0.254078	0.963852
	C10279	C	0.635730	0.191860	0.968299
	C10280	C	0.635253	0.316149	0.968324
	C10281	C	0.633362	0.752488	0.927060
	C10282	C	0.638062	0.752715	0.917802
	C10283	C	0.639530	0.814927	0.913400
	C10284	C	0.639246	0.690643	0.913364
	C10285	C	0.633351	0.252703	0.927064
	C10286	C	0.638096	0.252579	0.917813
	C10287	C	0.639485	0.314663	0.913388
	C10288	C	0.639496	0.190428	0.913410
	C10289	C	0.719345	0.043289	0.943076
	C10290	C	0.719419	0.962315	0.943076
	C10291	C	0.613721	0.043384	0.942109
	C10292	C	0.613736	0.962528	0.942105
	C10293	C	0.612392	0.043520	0.938706
	C10294	C	0.612367	0.962631	0.938704
	C10295	C	0.611338	0.462648	0.944812
	C10296	C	0.720741	0.462432	0.945864
	C10297	C	0.713066	0.462137	0.941109
	C10298	C	0.611354	0.543149	0.944835
	C10299	C	0.712994	0.543012	0.941088
	C10300	C	0.720715	0.543289	0.945862
	C10301	C	0.701991	0.752788	0.956854
	C10302	C	0.702032	0.253034	0.956862
	C10303	C	0.697637	0.752856	0.966087
	C10304	C	0.696037	0.690869	0.970467
	C10305	C	0.695929	0.814922	0.970429
	C10306	C	0.697774	0.252909	0.966109
	C10307	C	0.696207	0.190777	0.970462
	C10308	C	0.696072	0.314866	0.970470
	C10309	C	0.700232	0.253661	0.928366
	C10310	C	0.694891	0.752899	0.891845
	C10311	C	0.649120	0.753189	0.891162
	C10312	C	0.637681	0.752632	0.990973
	C10313	C	0.698047	0.691253	0.914488
	C10314	C	0.698292	0.815615	0.914475
	C10315	C	0.697583	0.753259	0.901270
	C10316	C	0.643864	0.752991	0.900349
	C10317	C	0.642228	0.690803	0.904736
	C10318	C	0.697656	0.691139	0.905748
	C10319	C	0.697872	0.815489	0.905738
	C10320	C	0.642534	0.815092	0.904774
	C10321	C	0.698149	0.753458	0.918939
	C10322	C	0.683533	0.752926	0.992371
	C10323	C	0.692248	0.691007	0.979018
	C10324	C	0.692113	0.815000	0.978984
	C10325	C	0.690083	0.753057	0.983341
	C10326	C	0.658609	0.462523	1.005054
	C10327	C	0.676464	0.462376	0.878791
	C10328	C	0.657535	0.462469	1.005088
	C10329	C	0.658609	0.543266	1.005060
	C10330	C	0.657582	0.543284	1.005079
	C10331	C	0.676453	0.543291	0.878809
	C10332	C	0.683517	0.252605	0.992364
	C10333	C	0.692390	0.190708	0.979016
	C10334	C	0.692236	0.314811	0.979022
	C10335	C	0.690193	0.252714	0.983356
	C10336	C	0.669101	0.043025	0.879743
	C10337	C	0.694926	0.253301	0.891815
	C10338	C	0.649166	0.252451	0.891133
	C10339	C	0.637712	0.253877	0.990963
	C10340	C	0.698177	0.191442	0.914468
	C10341	C	0.698215	0.315396	0.914451
	C10342	C	0.697599	0.253302	0.901246
	C10343	C	0.643903	0.252416	0.900343
	C10344	C	0.635846	0.752490	0.981520
	C10345	C	0.635941	0.814523	0.977033
	C10346	C	0.635765	0.690277	0.977068
	C10347	C	0.635875	0.253815	0.981503
	C10348	C	0.635655	0.315993	0.977059
	C10349	C	0.636108	0.191741	0.977034
	C10350	C	0.642440	0.190429	0.904779
	C10351	C	0.697783	0.191328	0.905734
	C10352	C	0.697802	0.315298	0.905719
	C10353	C	0.642436	0.314554	0.904753
	C10354	C	0.698266	0.253488	0.918918
	C10355	C	0.660520	0.043059	1.006588
	C10356	C	0.670724	0.043338	0.875761
	C10357	C	0.669079	0.962433	0.879713
	C10358	C	0.660563	0.962488	1.006576
	C10359	C	0.670677	0.962407	0.875761
	N10360	N	0.610562	0.070120	0.940521
	N10361	N	0.610574	0.935523	0.940516
	N10362	N	0.610322	0.435642	0.940454
	N10363	N	0.610347	0.570241	0.940484
	N10364	N	0.658136	0.435766	1.005199
	N10365	N	0.658207	0.570275	1.005222
	N10366	N	0.657832	0.070143	1.005186
	N10367	N	0.657849	0.935636	1.005196
	O10368	O	0.872300	0.694996	0.047444
	O10369	O	0.872331	0.811728	0.047460
	O10370	O	0.801417	0.694897	0.066181
	O10371	O	0.801268	0.811805	0.066236
	O10372	O	0.801273	0.195314	0.066196
	O10373	O	0.801455	0.312209	0.066140
	O10374	O	0.798948	0.694301	0.044940
	O10375	O	0.799043	0.810914	0.044948
	O10376	O	0.799058	0.194903	0.045000
	O10377	O	0.799056	0.311438	0.044939
	O10378	O	0.872050	0.695157	0.067639
	O10379	O	0.872204	0.811666	0.067638
	O10380	O	0.872219	0.193834	0.067583
	O10381	O	0.872065	0.310620	0.067630
	O10382	O	0.872313	0.194673	0.047470
	O10383	O	0.872124	0.311347	0.047488
	O10384	O	0.863854	0.694779	0.003642
	O10385	O	0.822492	0.694350	0.002489
	O10386	O	0.851027	0.695671	0.110546
	O10387	O	0.850607	0.812515	0.110475
	O10388	O	0.809857	0.693740	0.109982
	O10389	O	0.809110	0.810302	0.110059
	O10390	O	0.822473	0.811156	0.002475
	O10391	O	0.863673	0.811495	0.003637
	O10392	O	0.863965	0.195131	0.003645
	O10393	O	0.822659	0.194474	0.002490
	O10394	O	0.850422	0.193384	0.110484
	O10395	O	0.850895	0.310202	0.110467
	O10396	O	0.809355	0.196108	0.109983
	O10397	O	0.809977	0.312947	0.109964
	O10398	O	0.822608	0.311233	0.002559
	O10399	O	0.863801	0.311976	0.003627
	H10400	H	0.804722	0.643251	0.080238
	H10401	H	0.803886	0.862768	0.080318
	H10402	H	0.803852	0.144283	0.080265
	H10403	H	0.804528	0.364249	0.080199
	H10404	H	0.805359	0.862160	0.031198
	H10405	H	0.804574	0.643212	0.031145
	H10406	H	0.805154	0.362135	0.031217
	H10407	H	0.805081	0.143269	0.031265
	H10408	H	0.891993	0.064898	0.062336
	H10409	H	0.901223	0.064876	0.061044
	H10410	H	0.901185	0.941111	0.061094
	H10411	H	0.891892	0.941426	0.062388
	H10412	H	0.881422	0.064666	0.058846
	H10413	H	0.881374	0.941282	0.058869
	H10414	H	0.787300	0.064770	0.057311
	H10415	H	0.787291	0.941361	0.057261
	H10416	H	0.788853	0.064560	0.055299
	H10417	H	0.788858	0.941102	0.055251
	H10418	H	0.783759	0.064677	0.053068
	H10419	H	0.783647	0.941215	0.053053
	H10420	H	0.782666	0.441312	0.056323
	H10421	H	0.784093	0.440954	0.056016
	H10422	H	0.780697	0.441055	0.055916
	H10423	H	0.879575	0.441436	0.059176
	H10424	H	0.884556	0.441614	0.053448
	H10425	H	0.895507	0.441468	0.052651
	H10426	H	0.784094	0.565074	0.056058
	H10427	H	0.782634	0.564777	0.056371
	H10428	H	0.895646	0.564985	0.052646
	H10429	H	0.884421	0.564878	0.053453
	H10430	H	0.879647	0.564606	0.059208
	H10431	H	0.780617	0.564430	0.055923
	H10432	H	0.865504	0.643714	0.081480
	H10433	H	0.864142	0.863356	0.081283
	H10434	H	0.864647	0.142047	0.081305
	H10435	H	0.864990	0.361653	0.081392
	H10436	H	0.811675	0.643267	0.015724
	H10437	H	0.866650	0.643650	0.017704
	H10438	H	0.867084	0.863220	0.017681
	H10439	H	0.812419	0.862023	0.015804
	H10440	H	0.867595	0.643737	0.033427
	H10441	H	0.867997	0.863275	0.033422
	H10442	H	0.859889	0.644042	0.096998
	H10443	H	0.858449	0.863712	0.096789
	H10444	H	0.851953	0.442033	-0.003127
	H10445	H	0.829196	0.441146	0.114163
	H10446	H	0.838253	0.441727	-0.003018
	H10447	H	0.832987	0.441568	-0.006450
	H10448	H	0.817416	0.441033	0.123562
	H10449	H	0.815381	0.440893	0.118472
	H10450	H	0.829065	0.564860	0.114205
	H10451	H	0.851868	0.565022	-0.003141
	H10452	H	0.815394	0.564518	0.118493
	H10453	H	0.817435	0.564426	0.123561
	H10454	H	0.832960	0.564964	-0.006456
	H10455	H	0.838233	0.565122	-0.003044
	H10456	H	0.858758	0.141642	0.096843
	H10457	H	0.859177	0.361556	0.096883
	H10458	H	0.843906	0.065739	-0.007674
	H10459	H	0.842898	0.065106	-0.007136
	H10460	H	0.846360	0.064936	-0.007496
	H10461	H	0.804695	0.862248	0.096032
	H10462	H	0.805612	0.642723	0.095974
	H10463	H	0.805515	0.364473	0.095929
	H10464	H	0.804773	0.144595	0.095986
	H10465	H	0.812241	0.142853	0.015854
	H10466	H	0.866841	0.143540	0.017713
	H10467	H	0.867296	0.363258	0.017720
	H10468	H	0.812245	0.362125	0.015842
	H10469	H	0.867664	0.143383	0.033432
	H10470	H	0.868124	0.362976	0.033453
	H10471	H	0.831044	0.064698	0.123592
	H10472	H	0.837037	0.064437	0.121998
	H10473	H	0.836258	0.064522	0.118022
	H10474	H	0.842855	0.941887	-0.007163
	H10475	H	0.843929	0.941465	-0.007724
	H10476	H	0.846196	0.941630	-0.007481
	H10477	H	0.831133	0.941260	0.123600
	H10478	H	0.837152	0.940949	0.121977
	H10479	H	0.836213	0.941428	0.118017
	Zn10480	Zn	0.782361	0.680410	0.055584
	Zn10481	Zn	0.782393	0.825817	0.055556
	Zn10482	Zn	0.782404	0.180531	0.055584
	Zn10483	Zn	0.782284	0.325782	0.055570
	Zn10484	Zn	0.830067	0.680433	0.120227
	Zn10485	Zn	0.829642	0.825688	0.120245
	Zn10486	Zn	0.829496	0.180168	0.120209
	Zn10487	Zn	0.830205	0.325522	0.120256
	C10488	C	0.870530	0.753413	0.043829
	C10489	C	0.802731	0.753252	0.069851
	C10490	C	0.804576	0.753004	0.079312
	C10491	C	0.804771	0.690811	0.083755
	C10492	C	0.804303	0.814927	0.083795
	C10493	C	0.802674	0.253881	0.069809
	C10494	C	0.804482	0.254175	0.079251
	C10495	C	0.804293	0.192147	0.083738
	C10496	C	0.804680	0.316428	0.083698
	C10497	C	0.800828	0.752611	0.041373
	C10498	C	0.804986	0.752666	0.032129
	C10499	C	0.806756	0.814534	0.027770
	C10500	C	0.806308	0.690692	0.027737
	C10501	C	0.800920	0.253030	0.041402
	C10502	C	0.805208	0.252647	0.032172
	C10503	C	0.806813	0.314606	0.027801
	C10504	C	0.806784	0.190646	0.027815
	C10505	C	0.895579	0.043348	0.060658
	C10506	C	0.895549	0.962470	0.060680
	C10507	C	0.786620	0.043573	0.056121
	C10508	C	0.786645	0.962605	0.056099
	C10509	C	0.781507	0.043481	0.053908
	C10510	C	0.781483	0.962545	0.053911
	C10511	C	0.783199	0.462615	0.056013
	C10512	C	0.885765	0.462556	0.060065
	C10513	C	0.890675	0.462674	0.054292
	C10514	C	0.783186	0.543616	0.056033
	C10515	C	0.890664	0.543581	0.054303
	C10516	C	0.885788	0.543515	0.060070
	C10517	C	0.869624	0.753432	0.071169
	C10518	C	0.869648	0.252109	0.071128
	C10519	C	0.864795	0.753439	0.080406
	C10520	C	0.863811	0.691515	0.084872
	C10521	C	0.863030	0.815602	0.084760
	C10522	C	0.864848	0.251903	0.080376
	C10523	C	0.863356	0.189709	0.084782
	C10524	C	0.863551	0.313882	0.084813
	C10525	C	0.870386	0.253044	0.043854
	C10526	C	0.865127	0.753176	0.007288
	C10527	C	0.819195	0.752753	0.005851
	C10528	C	0.807751	0.752099	0.106398
	C10529	C	0.867397	0.691437	0.029928
	C10530	C	0.867674	0.815572	0.029926
	C10531	C	0.867117	0.753366	0.016736
	C10532	C	0.812497	0.752684	0.014873
	C10533	C	0.810105	0.690696	0.019178
	C10534	C	0.866988	0.691306	0.021198
	C10535	C	0.867292	0.815547	0.021189
	C10536	C	0.810535	0.814610	0.019218
	C10537	C	0.867782	0.753488	0.034382
	C10538	C	0.853564	0.754077	0.107040
	C10539	C	0.860777	0.691696	0.093495
	C10540	C	0.859987	0.815864	0.093378
	C10541	C	0.858825	0.753921	0.097839
	C10542	C	0.833878	0.462746	0.116490
	C10543	C	0.838059	0.462991	-0.005304
	C10544	C	0.820035	0.462306	0.120825
	C10545	C	0.833830	0.543512	0.116493
	C10546	C	0.820020	0.543211	0.120836
	C10547	C	0.838087	0.543901	-0.005310
	C10548	C	0.853414	0.251625	0.107004
	C10549	C	0.860278	0.189494	0.093407
	C10550	C	0.860490	0.313782	0.093433
	C10551	C	0.858810	0.251588	0.097819
	C10552	C	0.843874	0.044051	-0.007289
	C10553	C	0.865275	0.253589	0.007287
	C10554	C	0.819300	0.252677	0.005889
	C10555	C	0.807821	0.254576	0.106353
	C10556	C	0.867428	0.191146	0.029937
	C10557	C	0.867708	0.315310	0.029949
	C10558	C	0.867139	0.253470	0.016751
	C10559	C	0.812749	0.252542	0.014914
	C10560	C	0.805128	0.752508	0.096963
	C10561	C	0.804661	0.814672	0.092529
	C10562	C	0.805146	0.690528	0.092491
	C10563	C	0.805036	0.254584	0.096908
	C10564	C	0.805052	0.316694	0.092433
	C10565	C	0.804643	0.192328	0.092469
	C10566	C	0.810586	0.190562	0.019257
	C10567	C	0.867106	0.191256	0.021202
	C10568	C	0.867375	0.315528	0.021212
	C10569	C	0.810605	0.314515	0.019251
	C10570	C	0.867738	0.253169	0.034410
	C10571	C	0.832821	0.043269	0.122109
	C10572	C	0.846225	0.043564	-0.007128
	C10573	C	0.843825	0.963017	-0.007302
	C10574	C	0.832877	0.962414	0.122101
	C10575	C	0.846173	0.962938	-0.007129
	N10576	N	0.782520	0.070350	0.055578
	N10577	N	0.782535	0.935864	0.055571
	N10578	N	0.782463	0.435818	0.055589
	N10579	N	0.782483	0.570330	0.055597
	N10580	N	0.830207	0.435774	0.120277
	N10581	N	0.830142	0.570300	0.120279
	N10582	N	0.829491	0.069971	0.120203
	N10583	N	0.829574	0.935543	0.120184
	O10584	O	0.866282	0.695686	0.173972
	O10585	O	0.866791	0.812685	0.173939
	O10586	O	0.788074	0.694875	0.192967
	O10587	O	0.787875	0.811757	0.192964
	O10588	O	0.787960	0.194753	0.192977
	O10589	O	0.787987	0.311429	0.192985
	O10590	O	0.788444	0.694893	0.173037
	O10591	O	0.788448	0.811475	0.173061
	O10592	O	0.788542	0.194855	0.173027
	O10593	O	0.788169	0.311703	0.173005
	O10594	O	0.865880	0.696026	0.193969
	O10595	O	0.866379	0.812865	0.194029
	O10596	O	0.866265	0.192942	0.194003
	O10597	O	0.865761	0.309713	0.193932
	O10598	O	0.866772	0.192358	0.173944
	O10599	O	0.866290	0.309208	0.173948
	O10600	O	0.850548	0.695975	0.130437
	O10601	O	0.809706	0.693610	0.130151
	O10602	O	0.845009	0.694826	0.236833
	O10603	O	0.844994	0.811606	0.236891
	O10604	O	0.804104	0.695076	0.236462
	O10605	O	0.804198	0.811705	0.236448
	O10606	O	0.809399	0.810433	0.130095
	O10607	O	0.850257	0.812718	0.130423
	O10608	O	0.850287	0.193115	0.130406
	O10609	O	0.809460	0.195478	0.130145
	O10610	O	0.845119	0.194364	0.236913
	O10611	O	0.844899	0.311106	0.236791
	O10612	O	0.803943	0.194582	0.236473
	O10613	O	0.803994	0.311299	0.236498
	O10614	O	0.809810	0.312266	0.130151
	O10615	O	0.850657	0.309927	0.130441
	H10616	H	0.794248	0.643705	0.206854
	H10617	H	0.794486	0.863228	0.206834
	H10618	H	0.793989	0.143431	0.206858
	H10619	H	0.794307	0.362831	0.206924
	H10620	H	0.796408	0.862912	0.159322
	H10621	H	0.797189	0.643376	0.159479
	H10622	H	0.796491	0.363528	0.159399
	H10623	H	0.796577	0.143358	0.159343
	H10624	H	0.891390	0.064101	0.191632
	H10625	H	0.904110	0.064202	0.187919
	H10626	H	0.904155	0.940999	0.187860
	H10627	H	0.891358	0.940787	0.191617
	H10628	H	0.871153	0.064709	0.188097
	H10629	H	0.871094	0.941419	0.188089
	H10630	H	0.766821	0.064918	0.185671
	H10631	H	0.766824	0.941531	0.185612
	H10632	H	0.772670	0.065103	0.184890
	H10633	H	0.772654	0.941668	0.184883
	H10634	H	0.774129	0.065358	0.181582
	H10635	H	0.774142	0.941642	0.181629
	H10636	H	0.774695	0.440913	0.182534
	H10637	H	0.771590	0.441090	0.180398
	H10638	H	0.770608	0.441615	0.185445
	H10639	H	0.879885	0.441161	0.185120
	H10640	H	0.881882	0.441278	0.182016
	H10641	H	0.887615	0.441191	0.181426
	H10642	H	0.771563	0.564718	0.180335
	H10643	H	0.774753	0.564900	0.182484
	H10644	H	0.887668	0.564334	0.181452
	H10645	H	0.881931	0.564434	0.182030
	H10646	H	0.879964	0.564758	0.185146
	H10647	H	0.770606	0.564793	0.185390
	H10648	H	0.857853	0.644488	0.207585
	H10649	H	0.858746	0.864064	0.207723
	H10650	H	0.858543	0.141874	0.207733
	H10651	H	0.857960	0.361371	0.207572
	H10652	H	0.802695	0.642663	0.143943
	H10653	H	0.856937	0.644513	0.144336
	H10654	H	0.856676	0.864486	0.144360
	H10655	H	0.801920	0.862300	0.143794
	H10656	H	0.860722	0.644579	0.160027
	H10657	H	0.860549	0.864304	0.160055
	H10658	H	0.852293	0.643920	0.223073
	H10659	H	0.853182	0.863634	0.223238
	H10660	H	0.841279	0.441349	0.116141
	H10661	H	0.827007	0.441600	0.247490
	H10662	H	0.844086	0.441484	0.123085
	H10663	H	0.833981	0.441273	0.126240
	H10664	H	0.825009	0.441154	0.245423
	H10665	H	0.827293	0.441376	0.246057
	H10666	H	0.826993	0.565027	0.247554
	H10667	H	0.841209	0.564641	0.116083
	H10668	H	0.827233	0.564807	0.246046
	H10669	H	0.825013	0.564895	0.245407
	H10670	H	0.833956	0.564572	0.126214
	H10671	H	0.844039	0.564909	0.123066
	H10672	H	0.853007	0.142136	0.223235
	H10673	H	0.852440	0.362048	0.223093
	H10674	H	0.821271	0.064631	0.118940
	H10675	H	0.821900	0.064628	0.121864
	H10676	H	0.829491	0.064961	0.116731
	H10677	H	0.798202	0.863258	0.222516
	H10678	H	0.797975	0.643464	0.222521
	H10679	H	0.797968	0.362760	0.222602
	H10680	H	0.797710	0.143353	0.222562
	H10681	H	0.802384	0.143870	0.143851
	H10682	H	0.856620	0.140932	0.144344
	H10683	H	0.856805	0.360725	0.144377
	H10684	H	0.802299	0.363709	0.143890
	H10685	H	0.860512	0.140727	0.160032
	H10686	H	0.860597	0.360382	0.160045
	H10687	H	0.818637	0.064624	0.241138
	H10688	H	0.810020	0.064788	0.244728
	H10689	H	0.815108	0.065090	0.251318
	H10690	H	0.822020	0.941043	0.121847
	H10691	H	0.821308	0.941158	0.118943
	H10692	H	0.829590	0.941628	0.116730
	H10693	H	0.818595	0.941289	0.241155
	H10694	H	0.810037	0.941462	0.244735
	H10695	H	0.814980	0.941388	0.251342
	Zn10696	Zn	0.767412	0.681039	0.182765
	Zn10697	Zn	0.767401	0.825698	0.182765
	Zn10698	Zn	0.767470	0.180921	0.182765
	Zn10699	Zn	0.767355	0.325270	0.182766
	Zn10700	Zn	0.824448	0.680883	0.246686
	Zn10701	Zn	0.824361	0.825474	0.246694
	Zn10702	Zn	0.824361	0.180736	0.246715
	Zn10703	Zn	0.824449	0.325526	0.246659
	C10704	C	0.864365	0.754187	0.170384
	C10705	C	0.790286	0.753369	0.196525
	C10706	C	0.794331	0.753433	0.205902
	C10707	C	0.795193	0.691314	0.210345
	C10708	C	0.795325	0.815554	0.210337
	C10709	C	0.790176	0.253069	0.196565
	C10710	C	0.794137	0.253099	0.205952
	C10711	C	0.794957	0.190987	0.210370
	C10712	C	0.795115	0.315163	0.210407
	C10713	C	0.791167	0.753231	0.169556
	C10714	C	0.796422	0.753174	0.160344
	C10715	C	0.797786	0.815093	0.155898
	C10716	C	0.798230	0.690905	0.155991
	C10717	C	0.791054	0.253336	0.169534
	C10718	C	0.796436	0.253437	0.160355
	C10719	C	0.797896	0.315709	0.155954
	C10720	C	0.797938	0.191348	0.155932
	C10721	C	0.894981	0.042962	0.188307
	C10722	C	0.894982	0.962226	0.188288
	C10723	C	0.769156	0.043645	0.184608
	C10724	C	0.769135	0.962948	0.184615
	C10725	C	0.770665	0.043748	0.181309
	C10726	C	0.770608	0.962788	0.181315
	C10727	C	0.771607	0.462520	0.181805
	C10728	C	0.883188	0.462386	0.185524
	C10729	C	0.885225	0.462649	0.182371
	C10730	C	0.771619	0.543654	0.181775
	C10731	C	0.885254	0.543251	0.182387
	C10732	C	0.883244	0.543436	0.185522
	C10733	C	0.863430	0.754433	0.197487
	C10734	C	0.863449	0.251327	0.197473
	C10735	C	0.858388	0.754327	0.206704
	C10736	C	0.856730	0.692036	0.211060
	C10737	C	0.857250	0.816353	0.211146
	C10738	C	0.858458	0.251642	0.206709
	C10739	C	0.857195	0.189662	0.211155
	C10740	C	0.856876	0.313808	0.211073
	C10741	C	0.864404	0.250654	0.170372
	C10742	C	0.852704	0.754458	0.134005
	C10743	C	0.807028	0.752063	0.133626
	C10744	C	0.801956	0.753389	0.232866
	C10745	C	0.859722	0.692218	0.156536
	C10746	C	0.859624	0.816591	0.156541
	C10747	C	0.856754	0.754452	0.143375
	C10748	C	0.802284	0.752395	0.142889
	C10749	C	0.801213	0.690528	0.147360
	C10750	C	0.857809	0.692260	0.147822
	C10751	C	0.857665	0.816682	0.147824
	C10752	C	0.800797	0.814699	0.147270
	C10753	C	0.860573	0.754344	0.160983
	C10754	C	0.847592	0.753357	0.233363
	C10755	C	0.853739	0.691827	0.219676
	C10756	C	0.854254	0.815999	0.219769
	C10757	C	0.852530	0.753758	0.224143
	C10758	C	0.825424	0.462914	0.247477
	C10759	C	0.836694	0.462643	0.123494
	C10760	C	0.825709	0.462690	0.245993
	C10761	C	0.825397	0.543703	0.247474
	C10762	C	0.825722	0.543622	0.245978
	C10763	C	0.836687	0.543424	0.123486
	C10764	C	0.847599	0.252562	0.233355
	C10765	C	0.854209	0.189911	0.219777
	C10766	C	0.853869	0.314084	0.219692
	C10767	C	0.852652	0.252192	0.224152
	C10768	C	0.823662	0.043332	0.120345
	C10769	C	0.852665	0.251336	0.134009
	C10770	C	0.807209	0.253950	0.133674
	C10771	C	0.801788	0.252941	0.232908
	C10772	C	0.859566	0.188449	0.156546
	C10773	C	0.859586	0.312719	0.156561
	C10774	C	0.856725	0.250869	0.143388
	C10775	C	0.802360	0.253834	0.142911
	C10776	C	0.798069	0.753418	0.223501
	C10777	C	0.797243	0.815524	0.219047
	C10778	C	0.797136	0.691281	0.219055
	C10779	C	0.797854	0.252973	0.223546
	C10780	C	0.797048	0.315082	0.219116
	C10781	C	0.796898	0.190981	0.219083
	C10782	C	0.800988	0.191566	0.147314
	C10783	C	0.857594	0.188615	0.147829
	C10784	C	0.857665	0.312907	0.147852
	C10785	C	0.800973	0.315905	0.147334
	C10786	C	0.860419	0.250535	0.161001
	C10787	C	0.816954	0.043419	0.243944
	C10788	C	0.831959	0.043358	0.118124
	C10789	C	0.823700	0.962494	0.120337
	C10790	C	0.816965	0.962572	0.243939
	C10791	C	0.831973	0.962543	0.118112
	N10792	N	0.767505	0.070457	0.182749
	N10793	N	0.767427	0.935837	0.182749
	N10794	N	0.767374	0.435773	0.182762
	N10795	N	0.767451	0.570469	0.182732
	N10796	N	0.824466	0.435895	0.246686
	N10797	N	0.824466	0.570500	0.246694
	N10798	N	0.824299	0.070424	0.246698
	N10799	N	0.824323	0.935860	0.246729
	O10800	O	0.859302	0.694687	0.300505
	O10801	O	0.859345	0.811700	0.300541
	O10802	O	0.781740	0.693797	0.319527
	O10803	O	0.782122	0.810539	0.319444
	O10804	O	0.782254	0.195351	0.319428
	O10805	O	0.781729	0.312184	0.319536
	O10806	O	0.782207	0.694257	0.299397
	O10807	O	0.782528	0.810897	0.299386
	O10808	O	0.782492	0.195765	0.299406
	O10809	O	0.782224	0.312614	0.299375
	O10810	O	0.858697	0.694879	0.320630
	O10811	O	0.858950	0.811684	0.320709
	O10812	O	0.858974	0.194378	0.320734
	O10813	O	0.858762	0.311322	0.320682
	O10814	O	0.859239	0.194454	0.300533
	O10815	O	0.859175	0.311236	0.300557
	O10816	O	0.844622	0.694680	0.256985
	O10817	O	0.803694	0.694471	0.256524
	O10818	O	0.837853	0.694293	0.363548
	O10819	O	0.837757	0.811060	0.363562
	O10820	O	0.796783	0.694743	0.363100
	O10821	O	0.796639	0.811648	0.363027
	O10822	O	0.803659	0.811276	0.256538
	O10823	O	0.844905	0.811521	0.256958
	O10824	O	0.844686	0.194943	0.256946
	O10825	O	0.803691	0.194775	0.256510
	O10826	O	0.837876	0.194940	0.363568
	O10827	O	0.837860	0.311928	0.363582
	O10828	O	0.796928	0.194318	0.363043
	O10829	O	0.796778	0.311100	0.363093
	O10830	O	0.803679	0.311452	0.256466
	O10831	O	0.844803	0.311650	0.256961
	H10832	H	0.787371	0.642332	0.333493
	H10833	H	0.788117	0.862240	0.333380
	H10834	H	0.788399	0.143547	0.333363
	H10835	H	0.787059	0.363056	0.333472
	H10836	H	0.790619	0.861960	0.285800
	H10837	H	0.789771	0.642493	0.285663
	H10838	H	0.789635	0.363568	0.285650
	H10839	H	0.790613	0.144277	0.285792
	H10840	H	0.880505	0.064656	0.307888
	H10841	H	0.874328	0.064533	0.308558
	H10842	H	0.874522	0.941358	0.308563
	H10843	H	0.880531	0.940802	0.307925
	H10844	H	0.886747	0.064447	0.310316
	H10845	H	0.886787	0.941049	0.310292
	H10846	H	0.767538	0.065103	0.306588
	H10847	H	0.767466	0.941331	0.306592
	H10848	H	0.760456	0.064888	0.305814
	H10849	H	0.760478	0.941619	0.305808
	H10850	H	0.753464	0.064559	0.308515
	H10851	H	0.753497	0.941385	0.308519
	H10852	H	0.766773	0.441734	0.304213
	H10853	H	0.755194	0.441751	0.304342
	H10854	H	0.775377	0.441161	0.309580
	H10855	H	0.874923	0.441319	0.304482
	H10856	H	0.892872	0.441788	0.307188
	H10857	H	0.895305	0.440962	0.312622
	H10858	H	0.755242	0.564357	0.304350
	H10859	H	0.766744	0.564912	0.304283
	H10860	H	0.895300	0.564924	0.312621
	H10861	H	0.892852	0.564552	0.307178
	H10862	H	0.874989	0.564936	0.304494
	H10863	H	0.775197	0.565650	0.309583
	H10864	H	0.850894	0.643074	0.334306
	H10865	H	0.851423	0.862986	0.334412
	H10866	H	0.851224	0.143246	0.334397
	H10867	H	0.851128	0.363336	0.334361
	H10868	H	0.795520	0.642805	0.270153
	H10869	H	0.850101	0.643264	0.270942
	H10870	H	0.850583	0.863009	0.270917
	H10871	H	0.796305	0.862244	0.270273
	H10872	H	0.853475	0.643412	0.286621
	H10873	H	0.853958	0.863019	0.286639
	H10874	H	0.845341	0.642824	0.349848
	H10875	H	0.845911	0.862807	0.349921
	H10876	H	0.824580	0.441835	0.247959
	H10877	H	0.810620	0.441517	0.371180
	H10878	H	0.821461	0.441755	0.247140
	H10879	H	0.821692	0.441294	0.246020
	H10880	H	0.815751	0.441275	0.376633
	H10881	H	0.809880	0.441425	0.375038
	H10882	H	0.810504	0.564544	0.371142
	H10883	H	0.824451	0.565173	0.247991
	H10884	H	0.809906	0.564770	0.375018
	H10885	H	0.815812	0.564844	0.376685
	H10886	H	0.821536	0.564737	0.246056
	H10887	H	0.821480	0.564841	0.247118
	H10888	H	0.845686	0.143539	0.349920
	H10889	H	0.845538	0.363501	0.349907
	H10890	H	0.839200	0.064599	0.247673
	H10891	H	0.835507	0.064729	0.242834
	H10892	H	0.827357	0.064913	0.252576
	H10893	H	0.791319	0.862493	0.349089
	H10894	H	0.790588	0.642635	0.349175
	H10895	H	0.790425	0.362873	0.349162
	H10896	H	0.791658	0.143215	0.349052
	H10897	H	0.796249	0.143577	0.270275
	H10898	H	0.850802	0.143040	0.270858
	H10899	H	0.850180	0.362982	0.270966
	H10900	H	0.795361	0.363222	0.270134
	H10901	H	0.854008	0.142797	0.286531
	H10902	H	0.853426	0.362510	0.286671
	H10903	H	0.815335	0.064829	0.371526
	H10904	H	0.812639	0.065022	0.372690
	H10905	H	0.814316	0.064928	0.374822
	H10906	H	0.835514	0.941430	0.242876
	H10907	H	0.839216	0.941464	0.247707
	H10908	H	0.827405	0.941259	0.252553
	H10909	H	0.815273	0.941789	0.371518
	H10910	H	0.812571	0.941449	0.372676
	H10911	H	0.814210	0.941275	0.374795
	Zn10912	Zn	0.761519	0.680810	0.309228
	Zn10913	Zn	0.761932	0.825651	0.309177
	Zn10914	Zn	0.761936	0.180893	0.309180
	Zn10915	Zn	0.761602	0.325656	0.309217
	Zn10916	Zn	0.817160	0.680524	0.373365
	Zn10917	Zn	0.817074	0.825510	0.373325
	Zn10918	Zn	0.817183	0.180606	0.373341
	Zn10919	Zn	0.816967	0.325540	0.373366
	C10920	C	0.857187	0.753224	0.296955
	C10921	C	0.784116	0.752266	0.323076
	C10922	C	0.787872	0.752392	0.332459
	C10923	C	0.788408	0.690264	0.336951
	C10924	C	0.788815	0.814604	0.336889
	C10925	C	0.784130	0.253596	0.323064
	C10926	C	0.787739	0.253364	0.332458
	C10927	C	0.788927	0.191143	0.336870
	C10928	C	0.788214	0.315373	0.336943
	C10929	C	0.784988	0.752447	0.295885
	C10930	C	0.790038	0.752270	0.286673
	C10931	C	0.791774	0.814411	0.282309
	C10932	C	0.791331	0.690176	0.282239
	C10933	C	0.785018	0.254197	0.295899
	C10934	C	0.789984	0.253957	0.286666
	C10935	C	0.791159	0.315800	0.282220
	C10936	C	0.791699	0.191758	0.282299
	C10937	C	0.877930	0.043290	0.308916
	C10938	C	0.877992	0.962368	0.308928
	C10939	C	0.763494	0.043703	0.306990
	C10940	C	0.763454	0.962830	0.306982
	C10941	C	0.756440	0.043567	0.309730
	C10942	C	0.756424	0.962702	0.309724
	C10943	C	0.761147	0.463032	0.305585
	C10944	C	0.872177	0.462422	0.307421
	C10945	C	0.890195	0.462653	0.310145
	C10946	C	0.761142	0.543516	0.305603
	C10947	C	0.890186	0.543330	0.310162
	C10948	C	0.872192	0.543618	0.307415
	C10949	C	0.856226	0.753226	0.324169
	C10950	C	0.856253	0.252906	0.324196
	C10951	C	0.851273	0.752989	0.333394
	C10952	C	0.849675	0.690768	0.337778
	C10953	C	0.850018	0.815090	0.337832
	C10954	C	0.851347	0.253251	0.333435
	C10955	C	0.849941	0.191074	0.337846
	C10956	C	0.849890	0.315607	0.337831
	C10957	C	0.857104	0.252872	0.296950
	C10958	C	0.846817	0.753118	0.260564
	C10959	C	0.801115	0.752835	0.260029
	C10960	C	0.794614	0.753015	0.359483
	C10961	C	0.852721	0.691022	0.283127
	C10962	C	0.852977	0.815448	0.283132
	C10963	C	0.850432	0.753128	0.269969
	C10964	C	0.796075	0.752638	0.269252
	C10965	C	0.794395	0.690411	0.273623
	C10966	C	0.851075	0.691004	0.274417
	C10967	C	0.851320	0.815361	0.274415
	C10968	C	0.794794	0.814557	0.273692
	C10969	C	0.853619	0.753165	0.287570
	C10970	C	0.840450	0.752747	0.360060
	C10971	C	0.846703	0.690645	0.346407
	C10972	C	0.847018	0.815021	0.346450
	C10973	C	0.845428	0.752799	0.350834
	C10974	C	0.814655	0.462599	0.371325
	C10975	C	0.822345	0.462834	0.246608
	C10976	C	0.813953	0.462646	0.375188
	C10977	C	0.814666	0.543406	0.371311
	C10978	C	0.813953	0.543596	0.375203
	C10979	C	0.822321	0.543598	0.246601
	C10980	C	0.840472	0.253498	0.360086
	C10981	C	0.846993	0.191233	0.346467
	C10982	C	0.846907	0.315787	0.346462
	C10983	C	0.845517	0.253555	0.350862
	C10984	C	0.833894	0.043458	0.245661
	C10985	C	0.846883	0.253260	0.260540
	C10986	C	0.801035	0.253238	0.259993
	C10987	C	0.794749	0.252797	0.359473
	C10988	C	0.853078	0.190566	0.283059
	C10989	C	0.852765	0.314901	0.283136
	C10990	C	0.850505	0.253119	0.269926
	C10991	C	0.795997	0.253374	0.269215
	C10992	C	0.791055	0.752701	0.350077
	C10993	C	0.790456	0.814752	0.345604
	C10994	C	0.790067	0.690397	0.345670
	C10995	C	0.791073	0.252958	0.350072
	C10996	C	0.789924	0.315191	0.345664
	C10997	C	0.790613	0.191036	0.345587
	C10998	C	0.794727	0.191470	0.273674
	C10999	C	0.851468	0.190774	0.274343
	C11000	C	0.851173	0.315061	0.274421
	C11001	C	0.794222	0.315488	0.273597
	C11002	C	0.853662	0.252651	0.287543
	C11003	C	0.814838	0.043492	0.372427
	C11004	C	0.822038	0.043630	0.250580
	C11005	C	0.833933	0.962642	0.245662
	C11006	C	0.814770	0.962775	0.372411
	C11007	C	0.822053	0.962723	0.250594
	N11008	N	0.762037	0.070622	0.309188
	N11009	N	0.762000	0.936021	0.309197
	N11010	N	0.761606	0.435757	0.309208
	N11011	N	0.761553	0.570332	0.309222
	N11012	N	0.817154	0.435783	0.373353
	N11013	N	0.817178	0.570347	0.373346
	N11014	N	0.817232	0.070286	0.373320
	N11015	N	0.817109	0.935690	0.373294
	O11016	O	0.853253	0.694745	0.427125
	O11017	O	0.853005	0.811534	0.427186
	O11018	O	0.774936	0.695650	0.446077
	O11019	O	0.774856	0.812400	0.446114
	O11020	O	0.774825	0.194364	0.446100
	O11021	O	0.775100	0.311066	0.446019
	O11022	O	0.775248	0.695350	0.426036
	O11023	O	0.775013	0.812147	0.425984
	O11024	O	0.775008	0.194249	0.426017
	O11025	O	0.774999	0.310929	0.425996
	O11026	O	0.852942	0.694667	0.447168
	O11027	O	0.852983	0.811229	0.447170
	O11028	O	0.852907	0.194197	0.447118
	O11029	O	0.852987	0.310913	0.447194
	O11030	O	0.853232	0.194853	0.427103
	O11031	O	0.853041	0.311569	0.427201
	O11032	O	0.837262	0.694774	0.383643
	O11033	O	0.796333	0.695468	0.383111
	O11034	O	0.831600	0.694922	0.490030
	O11035	O	0.831417	0.811633	0.489977
	O11036	O	0.790526	0.694497	0.489607
	O11037	O	0.790494	0.811264	0.489608
	O11038	O	0.796586	0.812043	0.383194
	O11039	O	0.837422	0.811629	0.383568
	O11040	O	0.837454	0.194996	0.383630
	O11041	O	0.796389	0.194141	0.383155
	O11042	O	0.831490	0.194124	0.490052
	O11043	O	0.831407	0.310852	0.490015
	O11044	O	0.790466	0.194945	0.489576
	O11045	O	0.790690	0.311819	0.489603
	O11046	O	0.796229	0.310908	0.383147
	O11047	O	0.837221	0.311776	0.383642
	H11048	H	0.781509	0.643844	0.459956
	H11049	H	0.780339	0.863406	0.460070
	H11050	H	0.780596	0.143062	0.460046
	H11051	H	0.781353	0.363163	0.459975
	H11052	H	0.783034	0.863268	0.412353
	H11053	H	0.782999	0.643598	0.412352
	H11054	H	0.783064	0.362171	0.412347
	H11055	H	0.782748	0.143154	0.412319
	H11056	H	0.865517	0.064713	0.438178
	H11057	H	0.870113	0.064626	0.440333
	H11058	H	0.870205	0.941345	0.440395
	H11059	H	0.865480	0.941156	0.438204
	H11060	H	0.868740	0.064355	0.434557
	H11061	H	0.868787	0.941254	0.434565
	H11062	H	0.750716	0.065401	0.432717
	H11063	H	0.750736	0.941759	0.432725
	H11064	H	0.746048	0.064529	0.434874
	H11065	H	0.746020	0.941109	0.434860
	H11066	H	0.749415	0.064798	0.438583
	H11067	H	0.749406	0.941473	0.438605
	H11068	H	0.752220	0.441420	0.439625
	H11069	H	0.760476	0.441694	0.439094
	H11070	H	0.744760	0.441567	0.436183
	H11071	H	0.882321	0.440938	0.436954
	H11072	H	0.877773	0.441590	0.440431
	H11073	H	0.870454	0.441473	0.440541
	H11074	H	0.760383	0.564914	0.439097
	H11075	H	0.752199	0.565157	0.439627
	H11076	H	0.870351	0.564533	0.440508
	H11077	H	0.877678	0.564924	0.440434
	H11078	H	0.882219	0.564797	0.436907
	H11079	H	0.744799	0.565062	0.436143
	H11080	H	0.845541	0.643312	0.460896
	H11081	H	0.844534	0.862789	0.460783
	H11082	H	0.844916	0.142918	0.460822
	H11083	H	0.844992	0.362216	0.460859
	H11084	H	0.788613	0.643632	0.396838
	H11085	H	0.843474	0.643437	0.397515
	H11086	H	0.843280	0.863336	0.397512
	H11087	H	0.788668	0.863288	0.396846
	H11088	H	0.846991	0.643539	0.413185
	H11089	H	0.846774	0.863281	0.413209
	H11090	H	0.839781	0.643216	0.476400
	H11091	H	0.838799	0.862850	0.476289
	H11092	H	0.816969	0.441472	0.370009
	H11093	H	0.803036	0.441141	0.502466
	H11094	H	0.825000	0.441410	0.372255
	H11095	H	0.824489	0.441339	0.375030
	H11096	H	0.820797	0.441543	0.501310
	H11097	H	0.814724	0.441643	0.503748
	H11098	H	0.802984	0.564619	0.502464
	H11099	H	0.817044	0.564665	0.369985
	H11100	H	0.814591	0.565145	0.503754
	H11101	H	0.820757	0.565167	0.501328
	H11102	H	0.824545	0.564771	0.375037
	H11103	H	0.825046	0.564816	0.372227
	H11104	H	0.839215	0.142741	0.476342
	H11105	H	0.839227	0.362152	0.476349
	H11106	H	0.822044	0.064704	0.373615
	H11107	H	0.820786	0.065180	0.372050
	H11108	H	0.818233	0.064568	0.375195
	H11109	H	0.783980	0.862709	0.475749
	H11110	H	0.785171	0.643417	0.475628
	H11111	H	0.784898	0.363352	0.475658
	H11112	H	0.784043	0.143552	0.475735
	H11113	H	0.788424	0.143145	0.396808
	H11114	H	0.843292	0.143695	0.397544
	H11115	H	0.843330	0.363187	0.397545
	H11116	H	0.788672	0.362243	0.396827
	H11117	H	0.846875	0.143725	0.413230
	H11118	H	0.846926	0.363373	0.413244
	H11119	H	0.811225	0.065031	0.495944
	H11120	H	0.803513	0.064515	0.497116
	H11121	H	0.801996	0.064365	0.501556
	H11122	H	0.820651	0.941203	0.372038
	H11123	H	0.821981	0.940920	0.373555
	H11124	H	0.818176	0.941306	0.375157
	H11125	H	0.811277	0.941512	0.495931
	H11126	H	0.803584	0.941212	0.497100
	H11127	H	0.802130	0.940702	0.501569
	Zn11128	Zn	0.754573	0.680985	0.435836
	Zn11129	Zn	0.754371	0.825615	0.435823
	Zn11130	Zn	0.754360	0.180974	0.435833
	Zn11131	Zn	0.754589	0.325588	0.435834
	Zn11132	Zn	0.810933	0.680709	0.499836
	Zn11133	Zn	0.810917	0.825523	0.499851
	Zn11134	Zn	0.810697	0.180877	0.499848
	Zn11135	Zn	0.811006	0.325628	0.499875
	C11136	C	0.850894	0.753269	0.423576
	C11137	C	0.777102	0.754009	0.449676
	C11138	C	0.780870	0.753733	0.459046
	C11139	C	0.782084	0.691446	0.463464
	C11140	C	0.781484	0.815606	0.463528
	C11141	C	0.777152	0.252828	0.449642
	C11142	C	0.780922	0.253099	0.459024
	C11143	C	0.781577	0.191034	0.463500
	C11144	C	0.782012	0.315363	0.463455
	C11145	C	0.777730	0.753679	0.422507
	C11146	C	0.782710	0.753439	0.413287
	C11147	C	0.784269	0.815574	0.408898
	C11148	C	0.784246	0.691304	0.408893
	C11149	C	0.777620	0.252534	0.422501
	C11150	C	0.782628	0.252630	0.413279
	C11151	C	0.784248	0.314607	0.408887
	C11152	C	0.784071	0.190716	0.408867
	C11153	C	0.869370	0.043329	0.438759
	C11154	C	0.869399	0.962435	0.438767
	C11155	C	0.749946	0.043668	0.434341
	C11156	C	0.749950	0.962774	0.434327
	C11157	C	0.753343	0.043638	0.438093
	C11158	C	0.753373	0.962718	0.438092
	C11159	C	0.755875	0.462848	0.438450
	C11160	C	0.878515	0.462338	0.436147
	C11161	C	0.873931	0.462704	0.439665
	C11162	C	0.755863	0.543706	0.438451
	C11163	C	0.873956	0.543394	0.439651
	C11164	C	0.878503	0.543311	0.436137
	C11165	C	0.850255	0.752972	0.450664
	C11166	C	0.850305	0.252427	0.450656
	C11167	C	0.845120	0.752971	0.459881
	C11168	C	0.843901	0.690968	0.464317
	C11169	C	0.843366	0.815038	0.464251
	C11170	C	0.845239	0.252471	0.459873
	C11171	C	0.843635	0.190465	0.464274
	C11172	C	0.843629	0.314408	0.464285
	C11173	C	0.850931	0.253384	0.423566
	C11174	C	0.839587	0.753336	0.387177
	C11175	C	0.793752	0.753615	0.386638
	C11176	C	0.788314	0.752926	0.486022
	C11177	C	0.846186	0.691337	0.409709
	C11178	C	0.846061	0.815587	0.409713
	C11179	C	0.843454	0.753450	0.396553
	C11180	C	0.788684	0.753458	0.395855
	C11181	C	0.787276	0.691354	0.400274
	C11182	C	0.844310	0.691283	0.401001
	C11183	C	0.844193	0.815642	0.401002
	C11184	C	0.787292	0.815497	0.400281
	C11185	C	0.847052	0.753437	0.414173
	C11186	C	0.834140	0.753206	0.486515
	C11187	C	0.840856	0.690970	0.472937
	C11188	C	0.840321	0.815103	0.472872
	C11189	C	0.839093	0.753103	0.477309
	C11190	C	0.804281	0.462653	0.500552
	C11191	C	0.822739	0.462664	0.373576
	C11192	C	0.815971	0.462821	0.501835
	C11193	C	0.804228	0.543368	0.500545
	C11194	C	0.815909	0.543796	0.501834
	C11195	C	0.822799	0.543430	0.373575
	C11196	C	0.834129	0.252446	0.486539
	C11197	C	0.840616	0.190395	0.472896
	C11198	C	0.840605	0.314505	0.472906
	C11199	C	0.839172	0.252421	0.477312
	C11200	C	0.820293	0.043519	0.372948
	C11201	C	0.839544	0.253404	0.387216
	C11202	C	0.793674	0.252526	0.386645
	C11203	C	0.788364	0.253478	0.486013
	C11204	C	0.846033	0.191524	0.409750
	C11205	C	0.846049	0.315685	0.409758
	C11206	C	0.843352	0.253443	0.396594
	C11207	C	0.788647	0.252656	0.395858
	C11208	C	0.784512	0.753118	0.476641
	C11209	C	0.783349	0.815295	0.472236
	C11210	C	0.783983	0.691123	0.472180
	C11211	C	0.784549	0.253489	0.476621
	C11212	C	0.783856	0.315637	0.472168
	C11213	C	0.783405	0.191159	0.472211
	C11214	C	0.787131	0.190670	0.400252
	C11215	C	0.844171	0.191482	0.401042
	C11216	C	0.844195	0.315579	0.401044
	C11217	C	0.787301	0.314670	0.400267
	C11218	C	0.847011	0.253562	0.414193
	C11219	C	0.808284	0.043364	0.497385
	C11220	C	0.816518	0.043396	0.374557
	C11221	C	0.820242	0.962466	0.372930
	C11222	C	0.808314	0.962690	0.497392
	C11223	C	0.816471	0.962673	0.374534
	N11224	N	0.754356	0.070606	0.435828
	N11225	N	0.754403	0.936023	0.435835
	N11226	N	0.754625	0.435813	0.435867
	N11227	N	0.754648	0.570456	0.435868
	N11228	N	0.810952	0.435811	0.499854
	N11229	N	0.810887	0.570400	0.499865
	N11230	N	0.810778	0.070389	0.499839
	N11231	N	0.810808	0.935801	0.499841
	O11232	O	0.845542	0.694603	0.553726
	O11233	O	0.845505	0.811418	0.553722
	O11234	O	0.769083	0.694957	0.572592
	O11235	O	0.768649	0.811753	0.572664
	O11236	O	0.768736	0.194497	0.572660
	O11237	O	0.769077	0.311337	0.572603
	O11238	O	0.769455	0.695776	0.552539
	O11239	O	0.769044	0.812509	0.552503
	O11240	O	0.768964	0.194473	0.552521
	O11241	O	0.769133	0.311179	0.552523
	O11242	O	0.845312	0.694237	0.573908
	O11243	O	0.844967	0.810975	0.573838
	O11244	O	0.844990	0.194830	0.573835
	O11245	O	0.845336	0.311518	0.573929
	O11246	O	0.845171	0.195058	0.553756
	O11247	O	0.845529	0.311806	0.553701
	O11248	O	0.831357	0.694882	0.510111
	O11249	O	0.790394	0.694577	0.509709
	O11250	O	0.823874	0.695606	0.616753
	O11251	O	0.823558	0.812312	0.616670
	O11252	O	0.783070	0.694355	0.616184
	O11253	O	0.782650	0.811220	0.616283
	O11254	O	0.789934	0.811225	0.509606
	O11255	O	0.831081	0.811928	0.510136
	O11256	O	0.830910	0.194256	0.510159
	O11257	O	0.789907	0.194916	0.509604
	O11258	O	0.823796	0.194225	0.616755
	O11259	O	0.824030	0.310849	0.616731
	O11260	O	0.782800	0.195340	0.616232
	O11261	O	0.782941	0.312155	0.616281
	O11262	O	0.790416	0.311599	0.509676
	O11263	O	0.831512	0.310868	0.510069
	H11264	H	0.774985	0.643172	0.586512
	H11265	H	0.773834	0.862907	0.586637
	H11266	H	0.773993	0.143566	0.586619
	H11267	H	0.774680	0.363211	0.586596
	H11268	H	0.776338	0.863655	0.538746
	H11269	H	0.777121	0.644204	0.538865
	H11270	H	0.777141	0.362548	0.538876
	H11271	H	0.776291	0.143167	0.538773
	H11272	H	0.873604	0.064739	0.566909
	H11273	H	0.876315	0.064576	0.563567
	H11274	H	0.876251	0.940994	0.563575
	H11275	H	0.873577	0.941394	0.566958
	H11276	H	0.861632	0.065003	0.567903
	H11277	H	0.861513	0.941641	0.567914
	H11278	H	0.744264	0.064937	0.560707
	H11279	H	0.744293	0.941093	0.560702
	H11280	H	0.742647	0.064747	0.562532
	H11281	H	0.742607	0.941258	0.562503
	H11282	H	0.746959	0.064645	0.564628
	H11283	H	0.746908	0.941635	0.564640
	H11284	H	0.747500	0.440791	0.565667
	H11285	H	0.754388	0.441383	0.564915
	H11286	H	0.740238	0.441732	0.562886
	H11287	H	0.875141	0.441649	0.567955
	H11288	H	0.859851	0.441428	0.568735
	H11289	H	0.852847	0.441122	0.565188
	H11290	H	0.754489	0.564389	0.564902
	H11291	H	0.747559	0.565518	0.565645
	H11292	H	0.852856	0.564784	0.565157
	H11293	H	0.859900	0.564887	0.568672
	H11294	H	0.875023	0.564892	0.567959
	H11295	H	0.740458	0.564544	0.562890
	H11296	H	0.837913	0.643195	0.587647
	H11297	H	0.836752	0.862589	0.587441
	H11298	H	0.836764	0.143192	0.587449
	H11299	H	0.838042	0.362359	0.587633
	H11300	H	0.782716	0.643730	0.523344
	H11301	H	0.836611	0.643502	0.524065
	H11302	H	0.836717	0.863006	0.524042
	H11303	H	0.781975	0.863246	0.523242
	H11304	H	0.839709	0.643396	0.539776
	H11305	H	0.839834	0.863077	0.539760
	H11306	H	0.832196	0.643825	0.603161
	H11307	H	0.831044	0.863145	0.602951
	H11308	H	0.800681	0.441012	0.499123
	H11309	H	0.802810	0.441722	0.631430
	H11310	H	0.809085	0.441452	0.495798
	H11311	H	0.817549	0.441425	0.496740
	H11312	H	0.814228	0.441729	0.624253
	H11313	H	0.814806	0.441463	0.628430
	H11314	H	0.802755	0.564786	0.631432
	H11315	H	0.800622	0.564679	0.499140
	H11316	H	0.814739	0.564989	0.628448
	H11317	H	0.814187	0.565349	0.624313
	H11318	H	0.817490	0.565009	0.496741
	H11319	H	0.809069	0.564612	0.495790
	H11320	H	0.831168	0.142683	0.602953
	H11321	H	0.832351	0.361927	0.603144
	H11322	H	0.819128	0.064966	0.501993
	H11323	H	0.820172	0.065406	0.498730
	H11324	H	0.808602	0.064407	0.503616
	H11325	H	0.776774	0.862517	0.602337
	H11326	H	0.777941	0.642977	0.602233
	H11327	H	0.777689	0.363600	0.602300
	H11328	H	0.777164	0.143928	0.602331
	H11329	H	0.781878	0.143604	0.523246
	H11330	H	0.836664	0.142807	0.524120
	H11331	H	0.837070	0.362446	0.524042
	H11332	H	0.782748	0.362866	0.523382
	H11333	H	0.839743	0.143092	0.539820
	H11334	H	0.840125	0.362781	0.539744
	H11335	H	0.789779	0.065092	0.626344
	H11336	H	0.794309	0.064600	0.630364
	H11337	H	0.809346	0.064922	0.631120
	H11338	H	0.820313	0.941419	0.498781
	H11339	H	0.819184	0.941780	0.502017
	H11340	H	0.808655	0.941425	0.503633
	H11341	H	0.789853	0.941430	0.626382
	H11342	H	0.794340	0.941654	0.630359
	H11343	H	0.809402	0.941488	0.631091
	Zn11344	Zn	0.748806	0.680688	0.562341
	Zn11345	Zn	0.748405	0.825371	0.562347
	Zn11346	Zn	0.748486	0.180770	0.562413
	Zn11347	Zn	0.748638	0.325521	0.562334
	Zn11348	Zn	0.803117	0.681031	0.626520
	Zn11349	Zn	0.802976	0.825278	0.626546
	Zn11350	Zn	0.802844	0.180828	0.626529
	Zn11351	Zn	0.803330	0.325269	0.626509
	C11352	C	0.843426	0.753009	0.550125
	C11353	C	0.770919	0.753293	0.576219
	C11354	C	0.774401	0.753085	0.585608
	C11355	C	0.775419	0.690790	0.590023
	C11356	C	0.774793	0.815088	0.590096
	C11357	C	0.770944	0.252979	0.576226
	C11358	C	0.774380	0.253300	0.585638
	C11359	C	0.774945	0.191257	0.590100
	C11360	C	0.775283	0.315527	0.590087
	C11361	C	0.771777	0.754150	0.549010
	C11362	C	0.776492	0.753954	0.539761
	C11363	C	0.777766	0.815867	0.535326
	C11364	C	0.778175	0.691764	0.535387
	C11365	C	0.771657	0.252778	0.549015
	C11366	C	0.776632	0.252825	0.539796
	C11367	C	0.778311	0.314948	0.535417
	C11368	C	0.777802	0.190901	0.535347
	C11369	C	0.872526	0.043421	0.564929
	C11370	C	0.872478	0.962652	0.564949
	C11371	C	0.744759	0.043431	0.561809
	C11372	C	0.744766	0.962514	0.561809
	C11373	C	0.749153	0.043650	0.563903
	C11374	C	0.749130	0.962824	0.563925
	C11375	C	0.750376	0.462589	0.564497
	C11376	C	0.874156	0.462744	0.565414
	C11377	C	0.858861	0.462564	0.566189
	C11378	C	0.750414	0.543777	0.564485
	C11379	C	0.858870	0.543496	0.566148
	C11380	C	0.874141	0.543556	0.565384
	C11381	C	0.842541	0.752635	0.577371
	C11382	C	0.842508	0.253075	0.577382
	C11383	C	0.837554	0.752848	0.586582
	C11384	C	0.836350	0.691002	0.591053
	C11385	C	0.835739	0.815026	0.590934
	C11386	C	0.837562	0.252789	0.586599
	C11387	C	0.835730	0.190592	0.590942
	C11388	C	0.836430	0.314707	0.591049
	C11389	C	0.843285	0.253366	0.550133
	C11390	C	0.833273	0.753372	0.513697
	C11391	C	0.787477	0.752991	0.513141
	C11392	C	0.780781	0.752905	0.612640
	C11393	C	0.839039	0.691067	0.536285
	C11394	C	0.839114	0.815366	0.536269
	C11395	C	0.836840	0.753236	0.523098
	C11396	C	0.782324	0.753343	0.522331
	C11397	C	0.781156	0.691445	0.526768
	C11398	C	0.837461	0.691117	0.527563
	C11399	C	0.837521	0.815452	0.527544
	C11400	C	0.780747	0.815594	0.526705
	C11401	C	0.839816	0.753153	0.540721
	C11402	C	0.826381	0.753915	0.613209
	C11403	C	0.833325	0.691383	0.599672
	C11404	C	0.832691	0.815396	0.599552
	C11405	C	0.831544	0.753612	0.604014
	C11406	C	0.799467	0.462878	0.629407
	C11407	C	0.812686	0.462688	0.497212
	C11408	C	0.811537	0.462854	0.626387
	C11409	C	0.799424	0.543441	0.629419
	C11410	C	0.811506	0.543865	0.626402
	C11411	C	0.812654	0.543452	0.497217
	C11412	C	0.826577	0.252400	0.613252
	C11413	C	0.832715	0.190434	0.599562
	C11414	C	0.833444	0.314375	0.599673
	C11415	C	0.831637	0.252285	0.604030
	C11416	C	0.817367	0.043764	0.500232
	C11417	C	0.833316	0.252628	0.513715
	C11418	C	0.787568	0.253211	0.513144
	C11419	C	0.780791	0.253875	0.612669
	C11420	C	0.839059	0.190747	0.536306
	C11421	C	0.839278	0.314982	0.536263
	C11422	C	0.836894	0.252689	0.523104
	C11423	C	0.782522	0.253212	0.522354
	C11424	C	0.777344	0.752789	0.603226
	C11425	C	0.776352	0.814902	0.598814
	C11426	C	0.776976	0.690675	0.598748
	C11427	C	0.777285	0.253778	0.603260
	C11428	C	0.776758	0.315845	0.598811
	C11429	C	0.776403	0.191506	0.598819
	C11430	C	0.780784	0.191106	0.526726
	C11431	C	0.837509	0.190616	0.527583
	C11432	C	0.837744	0.314819	0.527544
	C11433	C	0.781283	0.315116	0.526800
	C11434	C	0.839847	0.253040	0.540732
	C11435	C	0.794911	0.043498	0.627889
	C11436	C	0.806767	0.043416	0.501866
	C11437	C	0.817378	0.962680	0.500237
	C11438	C	0.794950	0.962874	0.627893
	C11439	C	0.806789	0.962633	0.501871
	N11440	N	0.748446	0.070278	0.562379
	N11441	N	0.748470	0.935751	0.562382
	N11442	N	0.748706	0.435956	0.562306
	N11443	N	0.748789	0.570548	0.562314
	N11444	N	0.803254	0.435881	0.626510
	N11445	N	0.803180	0.570540	0.626528
	N11446	N	0.802943	0.070609	0.626546
	N11447	N	0.802993	0.935948	0.626545
	O11448	O	0.839594	0.693631	0.680264
	O11449	O	0.838994	0.810302	0.680323
	O11450	O	0.761058	0.695019	0.699303
	O11451	O	0.760924	0.811547	0.699312
	O11452	O	0.761116	0.194874	0.699291
	O11453	O	0.761091	0.311692	0.699270
	O11454	O	0.761306	0.694968	0.679265
	O11455	O	0.761249	0.811696	0.679266
	O11456	O	0.761434	0.194969	0.679296
	O11457	O	0.761518	0.311606	0.679300
	O11458	O	0.839204	0.693503	0.700214
	O11459	O	0.838932	0.810225	0.700212
	O11460	O	0.838890	0.196078	0.700188
	O11461	O	0.839386	0.312755	0.700238
	O11462	O	0.839135	0.195583	0.680256
	O11463	O	0.839621	0.312391	0.680211
	O11464	O	0.823702	0.695148	0.636715
	O11465	O	0.782814	0.694380	0.636401
	O11466	O	0.818243	0.694146	0.743159
	O11467	O	0.818043	0.810903	0.743062
	O11468	O	0.777184	0.694607	0.742749
	O11469	O	0.777151	0.811269	0.742844
	O11470	O	0.782512	0.811095	0.636402
	O11471	O	0.823576	0.812145	0.636778
	O11472	O	0.823166	0.194590	0.636766
	O11473	O	0.782289	0.195864	0.636365
	O11474	O	0.818086	0.195027	0.743056
	O11475	O	0.818048	0.311782	0.743098
	O11476	O	0.777213	0.194645	0.742767
	O11477	O	0.777091	0.311451	0.742807
	O11478	O	0.783048	0.312483	0.636489
	O11479	O	0.823853	0.311177	0.636664
	H11480	H	0.767175	0.643909	0.713203
	H11481	H	0.767052	0.863234	0.713252
	H11482	H	0.767157	0.143314	0.713231
	H11483	H	0.767333	0.363094	0.713215
	H11484	H	0.769189	0.862942	0.665599
	H11485	H	0.769460	0.643231	0.665629
	H11486	H	0.769630	0.363561	0.665656
	H11487	H	0.769081	0.144011	0.665613
	H11488	H	0.857815	0.064502	0.693027
	H11489	H	0.863355	0.064516	0.692687
	H11490	H	0.863333	0.941435	0.692704
	H11491	H	0.857842	0.941171	0.693030
	H11492	H	0.852801	0.064969	0.690637
	H11493	H	0.852866	0.941312	0.690677
	H11494	H	0.736853	0.064936	0.691347
	H11495	H	0.736876	0.941453	0.691310
	H11496	H	0.742659	0.065074	0.691687
	H11497	H	0.742536	0.941229	0.691692
	H11498	H	0.747492	0.064816	0.689254
	H11499	H	0.747483	0.941822	0.689234
	H11500	H	0.749194	0.441655	0.685133
	H11501	H	0.738598	0.441304	0.683868
	H11502	H	0.753112	0.441502	0.691007
	H11503	H	0.863069	0.441008	0.694891
	H11504	H	0.850715	0.441217	0.692947
	H11505	H	0.849129	0.441453	0.689162
	H11506	H	0.738544	0.564956	0.683886
	H11507	H	0.749275	0.564528	0.685178
	H11508	H	0.849053	0.564740	0.689198
	H11509	H	0.850722	0.564515	0.692951
	H11510	H	0.863074	0.564595	0.694883
	H11511	H	0.753102	0.564516	0.691036
	H11512	H	0.831376	0.642028	0.713928
	H11513	H	0.830443	0.861544	0.713817
	H11514	H	0.830714	0.144396	0.713793
	H11515	H	0.831275	0.364079	0.713902
	H11516	H	0.775115	0.643126	0.650111
	H11517	H	0.830145	0.643184	0.650589
	H11518	H	0.829153	0.862923	0.650729
	H11519	H	0.774843	0.862677	0.650086
	H11520	H	0.833764	0.642403	0.666274
	H11521	H	0.832799	0.862087	0.666421
	H11522	H	0.825875	0.642360	0.729456
	H11523	H	0.824939	0.861788	0.729325
	H11524	H	0.793510	0.441727	0.629479
	H11525	H	0.791931	0.440786	0.757282
	H11526	H	0.792686	0.441631	0.623800
	H11527	H	0.801391	0.441642	0.621619
	H11528	H	0.809978	0.441157	0.752903
	H11529	H	0.805969	0.440970	0.756660
	H11530	H	0.791867	0.564852	0.757294
	H11531	H	0.793418	0.565062	0.629471
	H11532	H	0.805936	0.564625	0.756720
	H11533	H	0.809973	0.564433	0.752986
	H11534	H	0.801376	0.565112	0.621642
	H11535	H	0.792597	0.565268	0.623818
	H11536	H	0.825063	0.143859	0.729301
	H11537	H	0.825565	0.363542	0.729413
	H11538	H	0.809633	0.064682	0.622127
	H11539	H	0.798597	0.065039	0.621599
	H11540	H	0.815795	0.064664	0.627634
	H11541	H	0.770741	0.863081	0.728946
	H11542	H	0.770846	0.643644	0.728858
	H11543	H	0.771121	0.363105	0.728880
	H11544	H	0.770938	0.143231	0.728917
	H11545	H	0.774618	0.144151	0.650087
	H11546	H	0.829145	0.143902	0.650707
	H11547	H	0.830225	0.363496	0.650553
	H11548	H	0.775170	0.363752	0.650137
	H11549	H	0.832791	0.144221	0.666368
	H11550	H	0.833896	0.363897	0.666264
	H11551	H	0.810286	0.065314	0.752525
	H11552	H	0.804672	0.064969	0.748835
	H11553	H	0.790129	0.064880	0.748854
	H11554	H	0.798644	0.941023	0.621595
	H11555	H	0.809612	0.941300	0.622136
	H11556	H	0.815864	0.941593	0.627645
	H11557	H	0.810359	0.941688	0.752480
	H11558	H	0.804717	0.941711	0.748849
	H11559	H	0.790119	0.941091	0.748888
	Zn11560	Zn	0.740734	0.681011	0.689066
	Zn11561	Zn	0.740546	0.825467	0.689072
	Zn11562	Zn	0.740657	0.180825	0.689041
	Zn11563	Zn	0.740650	0.325096	0.689052
	Zn11564	Zn	0.797642	0.680684	0.753015
	Zn11565	Zn	0.797796	0.825392	0.752984
	Zn11566	Zn	0.797768	0.180733	0.752977
	Zn11567	Zn	0.797729	0.325221	0.752984
	C11568	C	0.837056	0.751976	0.676710
	C11569	C	0.763235	0.753300	0.702894
	C11570	C	0.767127	0.753521	0.712250
	C11571	C	0.768090	0.691559	0.716682
	C11572	C	0.768029	0.815588	0.716717
	C11573	C	0.763243	0.253324	0.702864
	C11574	C	0.767198	0.253175	0.712253
	C11575	C	0.768066	0.191019	0.716713
	C11576	C	0.768178	0.315343	0.716696
	C11577	C	0.763991	0.753328	0.675782
	C11578	C	0.769200	0.753096	0.666581
	C11579	C	0.770602	0.815151	0.662168
	C11580	C	0.770769	0.690959	0.662174
	C11581	C	0.764109	0.253332	0.675799
	C11582	C	0.769137	0.253758	0.666581
	C11583	C	0.770810	0.315930	0.662188
	C11584	C	0.770500	0.191740	0.662168
	C11585	C	0.860296	0.043393	0.692230
	C11586	C	0.860342	0.962587	0.692230
	C11587	C	0.739964	0.043681	0.690863
	C11588	C	0.739942	0.962665	0.690853
	C11589	C	0.744872	0.043614	0.688404
	C11590	C	0.744843	0.962833	0.688384
	C11591	C	0.743055	0.462657	0.685712
	C11592	C	0.865064	0.462422	0.692857
	C11593	C	0.852611	0.462705	0.690915
	C11594	C	0.743087	0.543680	0.685722
	C11595	C	0.852606	0.543439	0.690928
	C11596	C	0.865011	0.543377	0.692857
	C11597	C	0.836293	0.751764	0.703695
	C11598	C	0.836435	0.254439	0.703709
	C11599	C	0.831137	0.751723	0.712913
	C11600	C	0.829845	0.689711	0.717355
	C11601	C	0.829389	0.813895	0.717292
	C11602	C	0.831109	0.254292	0.712893
	C11603	C	0.829462	0.192069	0.717256
	C11604	C	0.829759	0.316297	0.717319
	C11605	C	0.837106	0.254011	0.676661
	C11606	C	0.825803	0.753544	0.640321
	C11607	C	0.780119	0.752675	0.639910
	C11608	C	0.774870	0.753111	0.739225
	C11609	C	0.832614	0.690246	0.662827
	C11610	C	0.832121	0.814544	0.662906
	C11611	C	0.829601	0.753067	0.649710
	C11612	C	0.775182	0.752839	0.649148
	C11613	C	0.773829	0.690831	0.653558
	C11614	C	0.830764	0.690657	0.654115
	C11615	C	0.830261	0.815043	0.654191
	C11616	C	0.773643	0.814971	0.653549
	C11617	C	0.833219	0.752187	0.667320
	C11618	C	0.820651	0.752383	0.739598
	C11619	C	0.826944	0.689860	0.725985
	C11620	C	0.826462	0.814060	0.725917
	C11621	C	0.825354	0.752046	0.730359
	C11622	C	0.791079	0.462121	0.754954
	C11623	C	0.798655	0.462985	0.623706
	C11624	C	0.805228	0.462638	0.754328
	C11625	C	0.791028	0.543107	0.754967
	C11626	C	0.805241	0.543367	0.754364
	C11627	C	0.798635	0.543933	0.623721
	C11628	C	0.820533	0.253507	0.739566
	C11629	C	0.826516	0.191820	0.725883
	C11630	C	0.826783	0.316029	0.725948
	C11631	C	0.825283	0.253739	0.730337
	C11632	C	0.803776	0.043710	0.623090
	C11633	C	0.825696	0.253012	0.640301
	C11634	C	0.779995	0.254124	0.639917
	C11635	C	0.774890	0.253087	0.739216
	C11636	C	0.832168	0.191897	0.662869
	C11637	C	0.832803	0.316169	0.662796
	C11638	C	0.829584	0.253604	0.649678
	C11639	C	0.775107	0.254008	0.649151
	C11640	C	0.770909	0.753392	0.729847
	C11641	C	0.769958	0.815589	0.725428
	C11642	C	0.769987	0.691447	0.725385
	C11643	C	0.770906	0.253120	0.729850
	C11644	C	0.770099	0.315347	0.725401
	C11645	C	0.770010	0.190934	0.725423
	C11646	C	0.773441	0.191913	0.653540
	C11647	C	0.830290	0.191656	0.654163
	C11648	C	0.830897	0.315920	0.654083
	C11649	C	0.773783	0.316005	0.653567
	C11650	C	0.833293	0.254105	0.667276
	C11651	C	0.804938	0.043503	0.751277
	C11652	C	0.810022	0.043660	0.628625
	C11653	C	0.803797	0.962613	0.623087
	C11654	C	0.804944	0.962716	0.751264
	C11655	C	0.810052	0.962760	0.628616
	N11656	N	0.740625	0.070447	0.689082
	N11657	N	0.740551	0.935810	0.689056
	N11658	N	0.740673	0.435838	0.689044
	N11659	N	0.740751	0.570503	0.689070
	N11660	N	0.797628	0.435685	0.753008
	N11661	N	0.797604	0.570278	0.753040
	N11662	N	0.797693	0.070160	0.752956
	N11663	N	0.797686	0.935563	0.752990
	O11664	O	0.826462	0.694617	0.807042
	O11665	O	0.826573	0.811626	0.807036
	O11666	O	0.755695	0.694167	0.825824
	O11667	O	0.755869	0.811136	0.825774
	O11668	O	0.756014	0.195142	0.825733
	O11669	O	0.755841	0.311884	0.825737
	O11670	O	0.755819	0.693888	0.805610
	O11671	O	0.756075	0.810649	0.805652
	O11672	O	0.756003	0.195479	0.805638
	O11673	O	0.755758	0.312096	0.805585
	O11674	O	0.828737	0.694803	0.828305
	O11675	O	0.828934	0.811373	0.828314
	O11676	O	0.828914	0.193454	0.828313
	O11677	O	0.828830	0.310056	0.828295
	O11678	O	0.826463	0.193846	0.807015
	O11679	O	0.826396	0.310731	0.807025
	O11680	O	0.818125	0.694435	0.763235
	O11681	O	0.776674	0.694384	0.762716
	O11682	O	0.805414	0.694763	0.870775
	O11683	O	0.805304	0.811636	0.870785
	O11684	O	0.764070	0.694063	0.869609
	O11685	O	0.763974	0.810983	0.869605
	O11686	O	0.777122	0.811134	0.762789
	O11687	O	0.818340	0.811181	0.763217
	O11688	O	0.818243	0.194526	0.763184
	O11689	O	0.776998	0.194288	0.762770
	O11690	O	0.805323	0.194297	0.870773
	O11691	O	0.805195	0.311213	0.870701
	O11692	O	0.764127	0.194640	0.869573
	O11693	O	0.764067	0.311517	0.869524
	O11694	O	0.776916	0.311165	0.762730
	O11695	O	0.818175	0.311292	0.763228
	H11696	H	0.760218	0.642829	0.839809
	H11697	H	0.760480	0.862730	0.839804
	H11698	H	0.760223	0.143179	0.839781
	H11699	H	0.760356	0.363219	0.839771
	H11700	H	0.763661	0.862305	0.791974
	H11701	H	0.763002	0.642391	0.791879
	H11702	H	0.762938	0.363371	0.791811
	H11703	H	0.763634	0.143628	0.791952
	H11704	H	0.844025	0.064867	0.824693
	H11705	H	0.858222	0.064706	0.822724
	H11706	H	0.858242	0.941489	0.822753
	H11707	H	0.844039	0.941355	0.824746
	H11708	H	0.828108	0.064135	0.819339
	H11709	H	0.828049	0.940495	0.819334
	H11710	H	0.722854	0.065087	0.812801
	H11711	H	0.722827	0.941321	0.812824
	H11712	H	0.722439	0.065083	0.817532
	H11713	H	0.722389	0.941018	0.817588
	H11714	H	0.736359	0.064777	0.821135
	H11715	H	0.736448	0.941078	0.821120
	H11716	H	0.741095	0.441522	0.822077
	H11717	H	0.751575	0.441317	0.818114
	H11718	H	0.721806	0.441447	0.819787
	H11719	H	0.834640	0.441138	0.815151
	H11720	H	0.847373	0.441172	0.812918
	H11721	H	0.855737	0.441081	0.815368
	H11722	H	0.751468	0.564702	0.818091
	H11723	H	0.741087	0.564797	0.822071
	H11724	H	0.855676	0.564470	0.815422
	H11725	H	0.847351	0.564601	0.812958
	H11726	H	0.834585	0.564871	0.815155
	H11727	H	0.721804	0.564597	0.819754
	H11728	H	0.822409	0.643776	0.842045
	H11729	H	0.823098	0.862825	0.842123
	H11730	H	0.822669	0.142382	0.842084
	H11731	H	0.822898	0.361489	0.842050
	H11732	H	0.768566	0.642671	0.776357
	H11733	H	0.822654	0.643248	0.777275
	H11734	H	0.822722	0.862890	0.777229
	H11735	H	0.769217	0.862497	0.776464
	H11736	H	0.823505	0.643373	0.792981
	H11737	H	0.823605	0.863076	0.792969
	H11738	H	0.815297	0.643805	0.857460
	H11739	H	0.815997	0.862735	0.857523
	H11740	H	0.785601	0.440777	0.753958
	H11741	H	0.785444	0.441758	0.878615
	H11742	H	0.790991	0.441200	0.748882
	H11743	H	0.801272	0.441339	0.748417
	H11744	H	0.778130	0.440974	0.880062
	H11745	H	0.780014	0.441288	0.878660
	H11746	H	0.785532	0.564690	0.878543
	H11747	H	0.785556	0.563873	0.753996
	H11748	H	0.779969	0.564498	0.878644
	H11749	H	0.778200	0.565031	0.880051
	H11750	H	0.801240	0.564798	0.748411
	H11751	H	0.790962	0.564275	0.748857
	H11752	H	0.815532	0.142558	0.857502
	H11753	H	0.815837	0.361884	0.857452
	H11754	H	0.792615	0.064427	0.757523
	H11755	H	0.803221	0.064834	0.757504
	H11756	H	0.784957	0.064400	0.752529
	H11757	H	0.761443	0.862632	0.855546
	H11758	H	0.761214	0.642621	0.855542
	H11759	H	0.761230	0.363092	0.855495
	H11760	H	0.761021	0.143029	0.855526
	H11761	H	0.769230	0.143307	0.776440
	H11762	H	0.822655	0.142890	0.777183
	H11763	H	0.822488	0.362454	0.777240
	H11764	H	0.768621	0.362861	0.776293
	H11765	H	0.823578	0.142494	0.792899
	H11766	H	0.823468	0.362167	0.792970
	H11767	H	0.779654	0.065068	0.881156
	H11768	H	0.782730	0.064763	0.881815
	H11769	H	0.786747	0.064472	0.880871
	H11770	H	0.803362	0.941163	0.757550
	H11771	H	0.792625	0.941248	0.757560
	H11772	H	0.785049	0.941197	0.752564
	H11773	H	0.779603	0.941502	0.881169
	H11774	H	0.782736	0.941756	0.881823
	H11775	H	0.786723	0.941125	0.880825
	Zn11776	Zn	0.735429	0.680705	0.815520
	Zn11777	Zn	0.735667	0.825607	0.815471
	Zn11778	Zn	0.735614	0.180488	0.815498
	Zn11779	Zn	0.735388	0.325360	0.815512
	Zn11780	Zn	0.783138	0.680441	0.880184
	Zn11781	Zn	0.782974	0.825570	0.880163
	Zn11782	Zn	0.783144	0.180228	0.880192
	Zn11783	Zn	0.783142	0.325689	0.880180
	C11784	C	0.825201	0.753116	0.803390
	C11785	C	0.757580	0.752750	0.829412
	C11786	C	0.760282	0.752784	0.838855
	C11787	C	0.760491	0.690565	0.843309
	C11788	C	0.760604	0.814976	0.843306
	C11789	C	0.757698	0.253492	0.829362
	C11790	C	0.760309	0.253239	0.838813
	C11791	C	0.760475	0.190942	0.843283
	C11792	C	0.760572	0.315428	0.843262
	C11793	C	0.758417	0.752274	0.802114
	C11794	C	0.763129	0.752319	0.792882
	C11795	C	0.764702	0.814602	0.788509
	C11796	C	0.764340	0.690242	0.788444
	C11797	C	0.758327	0.253740	0.802085
	C11798	C	0.763156	0.253572	0.792863
	C11799	C	0.764366	0.315554	0.788403
	C11800	C	0.764747	0.191283	0.788484
	C11801	C	0.849579	0.043292	0.822131
	C11802	C	0.849554	0.962400	0.822147
	C11803	C	0.726066	0.043620	0.815253
	C11804	C	0.726065	0.962458	0.815265
	C11805	C	0.740105	0.043565	0.818845
	C11806	C	0.740150	0.962684	0.818859
	C11807	C	0.743418	0.462704	0.818901
	C11808	C	0.836979	0.462294	0.817298
	C11809	C	0.849814	0.462280	0.815105
	C11810	C	0.743377	0.543516	0.818892
	C11811	C	0.849811	0.543164	0.815083
	C11812	C	0.836961	0.543382	0.817308
	C11813	C	0.826991	0.753095	0.831881
	C11814	C	0.827058	0.251797	0.831886
	C11815	C	0.822749	0.753218	0.841127
	C11816	C	0.820998	0.691289	0.845482
	C11817	C	0.821370	0.815202	0.845531
	C11818	C	0.822863	0.251916	0.841140
	C11819	C	0.821175	0.189954	0.845514
	C11820	C	0.821327	0.314014	0.845496
	C11821	C	0.825128	0.252280	0.803372
	C11822	C	0.820055	0.752834	0.766842
	C11823	C	0.774203	0.752706	0.766248
	C11824	C	0.762730	0.752496	0.865961
	C11825	C	0.823215	0.691042	0.789485
	C11826	C	0.823279	0.815305	0.789473
	C11827	C	0.822638	0.753032	0.776295
	C11828	C	0.768962	0.752566	0.775450
	C11829	C	0.767310	0.690377	0.779819
	C11830	C	0.822814	0.690997	0.780759
	C11831	C	0.822872	0.815239	0.780741
	C11832	C	0.767649	0.814673	0.779886
	C11833	C	0.823253	0.753143	0.793939
	C11834	C	0.808658	0.753234	0.867419
	C11835	C	0.817230	0.691314	0.854041
	C11836	C	0.817575	0.815221	0.854087
	C11837	C	0.815290	0.753216	0.858396
	C11838	C	0.785581	0.462748	0.879517
	C11839	C	0.796515	0.462233	0.749790
	C11840	C	0.780032	0.462641	0.879585
	C11841	C	0.785609	0.543519	0.879510
	C11842	C	0.780043	0.543559	0.879575
	C11843	C	0.796504	0.543163	0.749795
	C11844	C	0.808611	0.252642	0.867392
	C11845	C	0.817339	0.190076	0.854069
	C11846	C	0.817501	0.314244	0.854047
	C11847	C	0.815302	0.252256	0.858380
	C11848	C	0.797895	0.043372	0.756332
	C11849	C	0.820031	0.252835	0.766833
	C11850	C	0.774262	0.252806	0.766231
	C11851	C	0.762708	0.252996	0.865912
	C11852	C	0.823338	0.190353	0.789421
	C11853	C	0.823281	0.314478	0.789460
	C11854	C	0.822834	0.252716	0.776262
	C11855	C	0.769025	0.253075	0.775435
	C11856	C	0.760834	0.752592	0.856502
	C11857	C	0.760984	0.814876	0.852045
	C11858	C	0.760873	0.690432	0.852046
	C11859	C	0.760855	0.253083	0.856452
	C11860	C	0.760922	0.315323	0.851994
	C11861	C	0.760791	0.190816	0.852018
	C11862	C	0.767746	0.191028	0.779865
	C11863	C	0.822991	0.190515	0.780690
	C11864	C	0.822923	0.314707	0.780725
	C11865	C	0.767369	0.315355	0.779782
	C11866	C	0.823315	0.252366	0.793916
	C11867	C	0.781597	0.043465	0.881151
	C11868	C	0.790221	0.043517	0.751302
	C11869	C	0.797927	0.962484	0.756345
	C11870	C	0.781601	0.962675	0.881153
	C11871	C	0.790219	0.962555	0.751319
	N11872	N	0.735620	0.070310	0.815463
	N11873	N	0.735644	0.935769	0.815472
	N11874	N	0.735289	0.435726	0.815530
	N11875	N	0.735267	0.570349	0.815521
	N11876	N	0.782921	0.435797	0.880159
	N11877	N	0.782950	0.570309	0.880163
	N11878	N	0.782865	0.070281	0.880187
	N11879	N	0.782818	0.935749	0.880185
	O11880	O	0.882375	0.695536	0.921969
	O11881	O	0.882455	0.811939	0.921969
	O11882	O	0.745205	0.694497	0.951308
	O11883	O	0.745498	0.810863	0.951279
	O11884	O	0.745288	0.194232	0.951340
	O11885	O	0.745440	0.310617	0.951303
	O11886	O	0.742684	0.694633	0.933229
	O11887	O	0.742873	0.811371	0.933264
	O11888	O	0.742821	0.194327	0.933287
	O11889	O	0.742891	0.311111	0.933261
	O11890	O	0.885039	0.695077	0.940027
	O11891	O	0.885221	0.811960	0.940000
	O11892	O	0.884949	0.195458	0.939997
	O11893	O	0.885284	0.312224	0.940052
	O11894	O	0.882419	0.195464	0.921966
	O11895	O	0.882437	0.311509	0.921935
	O11896	O	0.807989	0.695719	0.888841
	O11897	O	0.766626	0.694689	0.890845
	O11898	O	0.861328	0.695384	0.982420
	O11899	O	0.861178	0.812070	0.982423
	O11900	O	0.819820	0.694585	0.984391
	O11901	O	0.819678	0.810871	0.984418
	O11902	O	0.766369	0.811303	0.890779
	O11903	O	0.807982	0.812116	0.888858
	O11904	O	0.807905	0.195270	0.888874
	O11905	O	0.766441	0.194764	0.890842
	O11906	O	0.861459	0.195460	0.982480
	O11907	O	0.861202	0.312032	0.982475
	O11908	O	0.819812	0.194273	0.984453
	O11909	O	0.819783	0.310730	0.984426
	O11910	O	0.766381	0.311429	0.890814
	O11911	O	0.808096	0.311671	0.888788
	H11912	H	0.769266	0.644376	0.961887
	H11913	H	0.769378	0.860642	0.961859
	H11914	H	0.769227	0.143987	0.961889
	H11915	H	0.769579	0.360339	0.961824
	H11916	H	0.752898	0.862667	0.919913
	H11917	H	0.753445	0.643698	0.919973
	H11918	H	0.753361	0.362434	0.919969
	H11919	H	0.753331	0.143218	0.919981
	H11920	H	0.902907	0.064612	0.932326
	H11921	H	0.907986	0.064757	0.933161
	H11922	H	0.908095	0.940933	0.933156
	H11923	H	0.902958	0.941156	0.932349
	H11924	H	0.901688	0.064533	0.929456
	H11925	H	0.901730	0.941332	0.929462
	H11926	H	0.721975	0.064584	0.943164
	H11927	H	0.722035	0.940873	0.943168
	H11928	H	0.722269	0.064563	0.942457
	H11929	H	0.722458	0.941457	0.942471
	H11930	H	0.720533	0.064646	0.941853
	H11931	H	0.720534	0.941387	0.941838
	H11932	H	0.732496	0.441261	0.942106
	H11933	H	0.726897	0.441072	0.938608
	H11934	H	0.726032	0.441329	0.946928
	H11935	H	0.896967	0.440742	0.931975
	H11936	H	0.900299	0.441172	0.927186
	H11937	H	0.909331	0.441547	0.926267
	H11938	H	0.726946	0.564145	0.938590
	H11939	H	0.732533	0.564587	0.942103
	H11940	H	0.909371	0.564649	0.926314
	H11941	H	0.900272	0.564673	0.927169
	H11942	H	0.896868	0.564447	0.931981
	H11943	H	0.726007	0.564910	0.946948
	H11944	H	0.874876	0.644333	0.953307
	H11945	H	0.874577	0.863260	0.953277
	H11946	H	0.874826	0.144403	0.953352
	H11947	H	0.874589	0.363473	0.953309
	H11948	H	0.760485	0.643720	0.904569
	H11949	H	0.832122	0.645479	0.899343
	H11950	H	0.831893	0.862690	0.899508
	H11951	H	0.760053	0.862545	0.904540
	H11952	H	0.858461	0.645296	0.911348
	H11953	H	0.858271	0.862532	0.911505
	H11954	H	0.867706	0.644452	0.968702
	H11955	H	0.867359	0.863180	0.968683
	H11956	H	0.787689	0.441601	0.879976
	H11957	H	0.856578	0.441380	0.993440
	H11958	H	0.785193	0.441713	0.881836
	H11959	H	0.781194	0.441284	0.881939
	H11960	H	0.839337	0.441575	0.988862
	H11961	H	0.849189	0.441525	0.988775
	H11962	H	0.856595	0.565217	0.993438
	H11963	H	0.787732	0.564838	0.879966
	H11964	H	0.849354	0.564907	0.988752
	H11965	H	0.839377	0.564698	0.988834
	H11966	H	0.781213	0.565273	0.881936
	H11967	H	0.785249	0.564820	0.881874
	H11968	H	0.867678	0.144610	0.968742
	H11969	H	0.867414	0.363406	0.968712
	H11970	H	0.782448	0.064728	0.878581
	H11971	H	0.779486	0.064623	0.879278
	H11972	H	0.786595	0.064615	0.879477
	H11973	H	0.795637	0.860817	0.973893
	H11974	H	0.795565	0.644295	0.973899
	H11975	H	0.795973	0.360406	0.973830
	H11976	H	0.795535	0.143926	0.973907
	H11977	H	0.760372	0.143432	0.904556
	H11978	H	0.831912	0.145429	0.899420
	H11979	H	0.832036	0.361843	0.899367
	H11980	H	0.760313	0.362496	0.904551
	H11981	H	0.858189	0.145330	0.911449
	H11982	H	0.858246	0.361830	0.911397
	H11983	H	0.843751	0.064939	0.993722
	H11984	H	0.845540	0.064802	0.993854
	H11985	H	0.846927	0.064447	0.993109
	H11986	H	0.779496	0.941287	0.879305
	H11987	H	0.782313	0.941356	0.878620
	H11988	H	0.786461	0.940678	0.879443
	H11989	H	0.843795	0.941763	0.993699
	H11990	H	0.845458	0.941272	0.993847
	H11991	H	0.846822	0.941486	0.993109
	Zn11992	Zn	0.720474	0.680118	0.942629
	Zn11993	Zn	0.720594	0.825493	0.942658
	Zn11994	Zn	0.720366	0.180095	0.942614
	Zn11995	Zn	0.720534	0.325504	0.942652
	Zn11996	Zn	0.844781	0.680659	0.993056
	Zn11997	Zn	0.844542	0.826169	0.993045
	Zn11998	Zn	0.844819	0.180545	0.993080
	Zn11999	Zn	0.844578	0.326001	0.993088
	C12000	C	0.876051	0.753779	0.919273
	C12001	C	0.751699	0.752580	0.954003
	C12002	C	0.767739	0.752498	0.961157
	C12003	C	0.775131	0.691288	0.964559
	C12004	C	0.775206	0.813739	0.964542
	C12005	C	0.751762	0.252423	0.954001
	C12006	C	0.767859	0.252256	0.961135
	C12007	C	0.775172	0.190904	0.964546
	C12008	C	0.775397	0.313501	0.964506
	C12009	C	0.746104	0.753044	0.929880
	C12010	C	0.752717	0.753151	0.920854
	C12011	C	0.754680	0.815057	0.916510
	C12012	C	0.754950	0.691178	0.916533
	C12013	C	0.746190	0.252688	0.929904
	C12014	C	0.752933	0.252846	0.920879
	C12015	C	0.755090	0.314904	0.916537
	C12016	C	0.755028	0.190795	0.916551
	C12017	C	0.906019	0.043527	0.932179
	C12018	C	0.906098	0.962430	0.932187
	C12019	C	0.721592	0.043225	0.942778
	C12020	C	0.721667	0.962583	0.942773
	C12021	C	0.719743	0.043278	0.942132
	C12022	C	0.719817	0.962491	0.942138
	C12023	C	0.727199	0.462396	0.940950
	C12024	C	0.902169	0.462399	0.932610
	C12025	C	0.905543	0.462743	0.927740
	C12026	C	0.727208	0.543041	0.940929
	C12027	C	0.905514	0.543463	0.927759
	C12028	C	0.902107	0.543373	0.932633
	C12029	C	0.881858	0.753630	0.943378
	C12030	C	0.881800	0.253824	0.943381
	C12031	C	0.875201	0.753878	0.952407
	C12032	C	0.873090	0.691837	0.956732
	C12033	C	0.872940	0.815863	0.956718
	C12034	C	0.875196	0.253899	0.952408
	C12035	C	0.873119	0.192061	0.956758
	C12036	C	0.872973	0.315880	0.956736
	C12037	C	0.876005	0.253496	0.919258
	C12038	C	0.814398	0.753978	0.891532
	C12039	C	0.764635	0.753073	0.894376
	C12040	C	0.813315	0.752667	0.981729
	C12041	C	0.852555	0.692485	0.908702
	C12042	C	0.852453	0.815446	0.908790
	C12043	C	0.830509	0.754149	0.898659
	C12044	C	0.760285	0.753098	0.903603
	C12045	C	0.758794	0.691185	0.907986
	C12046	C	0.837939	0.692615	0.902044
	C12047	C	0.837838	0.815493	0.902130
	C12048	C	0.758537	0.815018	0.907962
	C12049	C	0.859887	0.753903	0.912149
	C12050	C	0.863169	0.753797	0.978873
	C12051	C	0.869225	0.691941	0.965278
	C12052	C	0.869074	0.815772	0.965262
	C12053	C	0.867554	0.753875	0.969640
	C12054	C	0.851807	0.462845	0.994602
	C12055	C	0.783084	0.462680	0.881458
	C12056	C	0.844457	0.462881	0.989947
	C12057	C	0.851831	0.543747	0.994601
	C12058	C	0.844515	0.543516	0.989917
	C12059	C	0.783092	0.543479	0.881462
	C12060	C	0.863217	0.253790	0.978907
	C12061	C	0.869263	0.192148	0.965308
	C12062	C	0.869086	0.315926	0.965288
	C12063	C	0.867564	0.253974	0.969663
	C12064	C	0.781412	0.043277	0.879261
	C12065	C	0.814412	0.253466	0.891519
	C12066	C	0.764568	0.253122	0.894388
	C12067	C	0.813387	0.252427	0.981755
	C12068	C	0.852419	0.192296	0.908739
	C12069	C	0.852487	0.314765	0.908707
	C12070	C	0.830538	0.253549	0.898627
	C12071	C	0.760430	0.252933	0.903624
	C12072	C	0.797120	0.752574	0.974638
	C12073	C	0.789755	0.813806	0.971224
	C12074	C	0.789695	0.691337	0.971235
	C12075	C	0.797228	0.252213	0.974629
	C12076	C	0.789946	0.313418	0.971191
	C12077	C	0.789731	0.190915	0.971233
	C12078	C	0.758843	0.190919	0.908000
	C12079	C	0.837842	0.192316	0.902066
	C12080	C	0.837914	0.314845	0.902035
	C12081	C	0.758855	0.314939	0.907985
	C12082	C	0.859887	0.253526	0.912118
	C12083	C	0.844788	0.043589	0.993597
	C12084	C	0.785619	0.043431	0.880172
	C12085	C	0.781367	0.962624	0.879271
	C12086	C	0.844733	0.962744	0.993581
	C12087	C	0.785611	0.962395	0.880162
	N12088	N	0.720226	0.069996	0.942645
	N12089	N	0.720361	0.935532	0.942660
	N12090	N	0.720306	0.435524	0.942639
	N12091	N	0.720253	0.570041	0.942615
	N12092	N	0.844772	0.435960	0.993079
	N12093	N	0.844848	0.570466	0.993056
	N12094	N	0.845001	0.070558	0.993074
	N12095	N	0.844915	0.936128	0.993050
	O12096	O	0.991418	0.694229	0.048924
	O12097	O	0.991269	0.811058	0.048976
	O12098	O	0.913150	0.693863	0.067955
	O12099	O	0.913191	0.810598	0.067953
	O12100	O	0.912930	0.194828	0.068011
	O12101	O	0.912922	0.311620	0.067964
	O12102	O	0.913421	0.694465	0.048031
	O12103	O	0.913515	0.811112	0.048002
	O12104	O	0.913639	0.195102	0.048025
	O12105	O	0.913414	0.311927	0.048046
	O12106	O	0.991143	0.694378	0.069061
	O12107	O	0.990873	0.810991	0.068970
	O12108	O	0.990788	0.194799	0.069010
	O12109	O	0.991328	0.311589	0.069093
	O12110	O	0.991380	0.194549	0.048901
	O12111	O	0.991297	0.311454	0.048920
	O12112	O	0.975367	0.694776	0.005459
	O12113	O	0.934374	0.694842	0.005103
	O12114	O	0.970154	0.695819	0.111936
	O12115	O	0.969507	0.812576	0.111817
	O12116	O	0.929223	0.693170	0.111436
	O12117	O	0.928594	0.809975	0.111497
	O12118	O	0.934528	0.811570	0.005140
	O12119	O	0.975620	0.811421	0.005412
	O12120	O	0.975604	0.194622	0.005371
	O12121	O	0.934632	0.194856	0.005166
	O12122	O	0.969639	0.193659	0.111914
	O12123	O	0.970168	0.310434	0.111953
	O12124	O	0.928711	0.195339	0.111487
	O12125	O	0.929093	0.312256	0.111520
	O12126	O	0.934557	0.311675	0.005139
	O12127	O	0.975585	0.311315	0.005386
	H12128	H	0.919530	0.642142	0.081859
	H12129	H	0.918806	0.861722	0.081911
	H12130	H	0.918951	0.143694	0.081969
	H12131	H	0.919595	0.363583	0.081890
	H12132	H	0.921616	0.862844	0.034369
	H12133	H	0.922043	0.642996	0.034418
	H12134	H	0.921888	0.363751	0.034391
	H12135	H	0.921744	0.143772	0.034394
	H12136	H	1.016827	0.064500	0.058416
	H12137	H	1.013314	0.064812	0.057115
	H12138	H	1.013438	0.941158	0.057118
	H12139	H	1.016826	0.941458	0.058440
	H12140	H	1.015377	0.064724	0.060912
	H12141	H	1.015311	0.940805	0.060932
	H12142	H	0.903483	0.064617	0.055833
	H12143	H	0.903332	0.941014	0.055837
	H12144	H	0.895751	0.064666	0.053267
	H12145	H	0.895778	0.941208	0.053273
	H12146	H	0.883082	0.064676	0.055014
	H12147	H	0.883087	0.941214	0.055001
	H12148	H	0.902228	0.441247	0.061471
	H12149	H	0.905813	0.441575	0.057286
	H12150	H	0.887129	0.440967	0.062586
	H12151	H	0.999326	0.441456	0.064401
	H12152	H	0.994776	0.441147	0.056254
	H12153	H	1.006157	0.441087	0.052263
	H12154	H	0.905703	0.564864	0.057265
	H12155	H	0.902223	0.565216	0.061468
	H12156	H	1.006155	0.564364	0.052224
	H12157	H	0.994761	0.564474	0.056229
	H12158	H	0.999398	0.564769	0.064386
	H12159	H	0.887139	0.564860	0.062575
	H12160	H	0.983933	0.643413	0.082801
	H12161	H	0.982659	0.863247	0.082604
	H12162	H	0.982625	0.142905	0.082645
	H12163	H	0.983844	0.362596	0.082767
	H12164	H	0.927582	0.643037	0.018900
	H12165	H	0.981969	0.643418	0.019315
	H12166	H	0.981493	0.862961	0.019387
	H12167	H	0.927078	0.862811	0.018840
	H12168	H	0.985600	0.643110	0.034999
	H12169	H	0.985098	0.862676	0.035074
	H12170	H	0.978102	0.644087	0.098318
	H12171	H	0.976828	0.863763	0.098094
	H12172	H	0.968319	0.441724	-0.003436
	H12173	H	0.961329	0.440844	0.124078
	H12174	H	0.956583	0.441456	0.000624
	H12175	H	0.945675	0.441092	-0.000882
	H12176	H	0.948707	0.440675	0.116595
	H12177	H	0.959038	0.440862	0.118199
	H12178	H	0.961337	0.564116	0.124117
	H12179	H	0.968111	0.564917	-0.003425
	H12180	H	0.958942	0.564251	0.118222
	H12181	H	0.948714	0.564266	0.116568
	H12182	H	0.945538	0.564720	-0.000893
	H12183	H	0.956527	0.564874	0.000628
	H12184	H	0.976987	0.142369	0.098150
	H12185	H	0.978167	0.362145	0.098291
	H12186	H	0.950641	0.064243	-0.009590
	H12187	H	0.943031	0.064686	-0.006644
	H12188	H	0.964781	0.064175	-0.007936
	H12189	H	0.922352	0.861589	0.097578
	H12190	H	0.923123	0.641997	0.097543
	H12191	H	0.923291	0.363799	0.097579
	H12192	H	0.922567	0.144064	0.097624
	H12193	H	0.927190	0.143732	0.018856
	H12194	H	0.981555	0.143200	0.019330
	H12195	H	0.981846	0.362920	0.019276
	H12196	H	0.927312	0.363606	0.018855
	H12197	H	0.985135	0.143386	0.035015
	H12198	H	0.985434	0.363202	0.034995
	H12199	H	0.940478	0.064417	0.122301
	H12200	H	0.944737	0.064341	0.124665
	H12201	H	0.954627	0.064231	0.124399
	H12202	H	0.943057	0.940318	-0.006643
	H12203	H	0.950625	0.940941	-0.009535
	H12204	H	0.964819	0.941270	-0.007924
	H12205	H	0.940536	0.940848	0.122300
	H12206	H	0.944784	0.941090	0.124667
	H12207	H	0.954683	0.940809	0.124339
	Zn12208	Zn	0.892419	0.680301	0.057731
	Zn12209	Zn	0.892620	0.825440	0.057758
	Zn12210	Zn	0.892672	0.180464	0.057722
	Zn12211	Zn	0.892425	0.325575	0.057725
	Zn12212	Zn	0.949583	0.679834	0.121732
	Zn12213	Zn	0.948986	0.825147	0.121753
	Zn12214	Zn	0.949050	0.180069	0.121728
	Zn12215	Zn	0.949612	0.325240	0.121737
	C12216	C	0.989154	0.752743	0.045377
	C12217	C	0.915333	0.752195	0.071541
	C12218	C	0.919202	0.752025	0.080918
	C12219	C	0.920286	0.689875	0.085352
	C12220	C	0.919870	0.814004	0.085378
	C12221	C	0.915192	0.253335	0.071572
	C12222	C	0.919205	0.253643	0.080956
	C12223	C	0.919947	0.191573	0.085425
	C12224	C	0.920308	0.315848	0.085394
	C12225	C	0.916200	0.752765	0.044524
	C12226	C	0.921571	0.752887	0.035342
	C12227	C	0.923011	0.815006	0.030923
	C12228	C	0.923176	0.690732	0.030955
	C12229	C	0.916330	0.253615	0.044551
	C12230	C	0.921514	0.253725	0.035337
	C12231	C	0.923083	0.315923	0.030934
	C12232	C	0.923014	0.191516	0.030935
	C12233	C	1.014135	0.043073	0.058150
	C12234	C	1.014163	0.962571	0.058159
	C12235	C	0.897810	0.043469	0.055364
	C12236	C	0.897790	0.962692	0.055380
	C12237	C	0.885032	0.043440	0.057124
	C12238	C	0.885011	0.962559	0.057139
	C12239	C	0.900964	0.462625	0.058962
	C12240	C	1.008010	0.462584	0.063746
	C12241	C	1.003432	0.462370	0.055544
	C12242	C	0.900971	0.543401	0.058958
	C12243	C	1.003412	0.543142	0.055537
	C12244	C	1.007965	0.543439	0.063745
	C12245	C	0.988401	0.752817	0.072518
	C12246	C	0.988456	0.253146	0.072545
	C12247	C	0.983406	0.753188	0.081737
	C12248	C	0.982284	0.691250	0.086205
	C12249	C	0.981549	0.815573	0.086080
	C12250	C	0.983424	0.252810	0.081759
	C12251	C	0.981600	0.190473	0.086123
	C12252	C	0.982273	0.314776	0.086191
	C12253	C	0.989117	0.253056	0.045332
	C12254	C	0.977678	0.753173	0.009027
	C12255	C	0.932031	0.753144	0.008647
	C12256	C	0.926683	0.751629	0.107888
	C12257	C	0.984538	0.690889	0.031530
	C12258	C	0.984269	0.815075	0.031581
	C12259	C	0.981541	0.753204	0.018397
	C12260	C	0.927372	0.752969	0.017896
	C12261	C	0.926119	0.690791	0.022328
	C12262	C	0.982622	0.691056	0.022819
	C12263	C	0.982368	0.815260	0.022869
	C12264	C	0.925925	0.815006	0.022297
	C12265	C	0.985223	0.752833	0.035999
	C12266	C	0.972408	0.754140	0.108374
	C12267	C	0.979244	0.691616	0.094826
	C12268	C	0.978508	0.815921	0.094698
	C12269	C	0.977357	0.753925	0.099156
	C12270	C	0.955127	0.462308	0.124453
	C12271	C	0.952099	0.462586	-0.001343
	C12272	C	0.952727	0.462145	0.118532
	C12273	C	0.955130	0.542997	0.124437
	C12274	C	0.952752	0.543026	0.118521
	C12275	C	0.952060	0.543404	-0.001349
	C12276	C	0.972507	0.252013	0.108425
	C12277	C	0.978579	0.190231	0.094744
	C12278	C	0.979249	0.314448	0.094813
	C12279	C	0.977469	0.252255	0.099194
	C12280	C	0.948944	0.043225	-0.007230
	C12281	C	0.977827	0.252953	0.008958
	C12282	C	0.932074	0.253312	0.008663
	C12283	C	0.926745	0.253947	0.107925
	C12284	C	0.984336	0.191095	0.031515
	C12285	C	0.984487	0.315461	0.031498
	C12286	C	0.981666	0.253129	0.018351
	C12287	C	0.927411	0.253588	0.017900
	C12288	C	0.922806	0.751770	0.098518
	C12289	C	0.921710	0.813877	0.094087
	C12290	C	0.922158	0.689735	0.094064
	C12291	C	0.922912	0.253975	0.098561
	C12292	C	0.922241	0.316074	0.094104
	C12293	C	0.921831	0.191797	0.094135
	C12294	C	0.925960	0.191442	0.022306
	C12295	C	0.982464	0.191022	0.022807
	C12296	C	0.982618	0.315329	0.022782
	C12297	C	0.926032	0.315834	0.022306
	C12298	C	0.985318	0.253304	0.035956
	C12299	C	0.944296	0.042988	0.123020
	C12300	C	0.963177	0.043275	-0.005577
	C12301	C	0.948976	0.962187	-0.007229
	C12302	C	0.944342	0.962396	0.123035
	C12303	C	0.963193	0.962543	-0.005566
	N12304	N	0.892782	0.070340	0.057716
	N12305	N	0.892747	0.935779	0.057744
	N12306	N	0.892461	0.435650	0.057782
	N12307	N	0.892462	0.570149	0.057763
	N12308	N	0.949644	0.435431	0.121725
	N12309	N	0.949639	0.569870	0.121724
	N12310	N	0.949010	0.069981	0.121738
	N12311	N	0.949002	0.935443	0.121718
	O12312	O	0.984282	0.694564	0.175556
	O12313	O	0.984258	0.811354	0.175607
	O12314	O	0.906927	0.693228	0.194494
	O12315	O	0.907324	0.809988	0.194459
	O12316	O	0.907413	0.196358	0.194465
	O12317	O	0.906807	0.313123	0.194508
	O12318	O	0.907262	0.692405	0.174360
	O12319	O	0.907919	0.809279	0.174448
	O12320	O	0.907773	0.195961	0.174428
	O12321	O	0.907335	0.312750	0.174389
	O12322	O	0.984102	0.694948	0.195647
	O12323	O	0.984103	0.811667	0.195638
	O12324	O	0.984206	0.193875	0.195640
	O12325	O	0.984036	0.310494	0.195606
	O12326	O	0.984402	0.193399	0.175583
	O12327	O	0.984397	0.310222	0.175567
	O12328	O	0.969730	0.695540	0.131977
	O12329	O	0.928763	0.692962	0.131512
	O12330	O	0.962920	0.694826	0.238492
	O12331	O	0.962573	0.811579	0.238522
	O12332	O	0.921847	0.694022	0.238098
	O12333	O	0.921845	0.810533	0.237991
	O12334	O	0.928372	0.809798	0.131515
	O12335	O	0.969393	0.812347	0.132023
	O12336	O	0.969453	0.193484	0.132052
	O12337	O	0.928463	0.195499	0.131529
	O12338	O	0.962705	0.193952	0.238477
	O12339	O	0.962882	0.310551	0.238505
	O12340	O	0.921880	0.195025	0.238006
	O12341	O	0.921832	0.311827	0.238096
	O12342	O	0.928525	0.312421	0.131512
	O12343	O	0.969749	0.310310	0.132006
	H12344	H	0.912387	0.641765	0.208443
	H12345	H	0.912790	0.861231	0.208397
	H12346	H	0.913343	0.144747	0.208358
	H12347	H	0.912422	0.364296	0.208475
	H12348	H	0.915215	0.860716	0.160735
	H12349	H	0.914941	0.640951	0.160685
	H12350	H	0.914828	0.364184	0.160676
	H12351	H	0.915370	0.144586	0.160755
	H12352	H	1.011240	0.064491	0.188555
	H12353	H	1.014119	0.064460	0.185771
	H12354	H	1.014205	0.940982	0.185756
	H12355	H	1.011307	0.940619	0.188558
	H12356	H	1.000794	0.064262	0.189010
	H12357	H	1.000894	0.941026	0.189078
	H12358	H	0.901305	0.064737	0.179269
	H12359	H	0.901289	0.941347	0.179213
	H12360	H	0.886552	0.064809	0.176686
	H12361	H	0.886482	0.941107	0.176635
	H12362	H	0.869080	0.064655	0.181786
	H12363	H	0.869032	0.941115	0.181765
	H12364	H	0.892018	0.441346	0.186033
	H12365	H	0.893503	0.440956	0.183724
	H12366	H	0.884185	0.440988	0.186847
	H12367	H	1.017501	0.441438	0.185930
	H12368	H	1.008903	0.440958	0.190573
	H12369	H	0.998317	0.440496	0.190069
	H12370	H	0.893467	0.564815	0.183738
	H12371	H	0.892015	0.564416	0.185996
	H12372	H	0.998204	0.564297	0.190097
	H12373	H	1.008943	0.564293	0.190574
	H12374	H	1.017322	0.564788	0.185976
	H12375	H	0.884189	0.564387	0.186814
	H12376	H	0.976521	0.643505	0.209338
	H12377	H	0.976620	0.863188	0.209361
	H12378	H	0.976376	0.142583	0.209307
	H12379	H	0.976159	0.361784	0.209299
	H12380	H	0.920486	0.641066	0.145127
	H12381	H	0.975511	0.643715	0.145913
	H12382	H	0.975028	0.863460	0.145980
	H12383	H	0.920708	0.861088	0.145228
	H12384	H	0.978583	0.643370	0.161600
	H12385	H	0.978156	0.863120	0.161689
	H12386	H	0.970649	0.643553	0.224834
	H12387	H	0.970772	0.863203	0.224846
	H12388	H	0.952867	0.441087	0.126763
	H12389	H	0.936566	0.441298	0.250394
	H12390	H	0.938671	0.441012	0.124536
	H12391	H	0.937038	0.440547	0.120216
	H12392	H	0.949899	0.440902	0.249294
	H12393	H	0.945418	0.440611	0.251204
	H12394	H	0.936689	0.564400	0.250438
	H12395	H	0.952793	0.564441	0.126755
	H12396	H	0.945521	0.564514	0.251188
	H12397	H	0.949906	0.564399	0.249252
	H12398	H	0.937016	0.564396	0.120226
	H12399	H	0.938805	0.564695	0.124521
	H12400	H	0.970696	0.142532	0.224798
	H12401	H	0.970475	0.361741	0.224812
	H12402	H	0.951930	0.064265	0.118508
	H12403	H	0.944681	0.065255	0.118764
	H12404	H	0.957709	0.063705	0.121798
	H12405	H	0.915998	0.861521	0.224089
	H12406	H	0.915681	0.641815	0.224138
	H12407	H	0.915652	0.363936	0.224177
	H12408	H	0.916637	0.144169	0.224030
	H12409	H	0.920930	0.144476	0.145225
	H12410	H	0.975235	0.141998	0.145973
	H12411	H	0.975288	0.361624	0.145930
	H12412	H	0.920484	0.364101	0.145155
	H12413	H	0.978553	0.142042	0.161653
	H12414	H	0.978632	0.361511	0.161643
	H12415	H	0.945666	0.064355	0.249436
	H12416	H	0.946394	0.064574	0.247978
	H12417	H	0.942551	0.064327	0.246532
	H12418	H	0.944615	0.941080	0.118756
	H12419	H	0.951850	0.940893	0.118534
	H12420	H	0.957516	0.940668	0.121739
	H12421	H	0.945570	0.940942	0.249428
	H12422	H	0.946400	0.941384	0.247948
	H12423	H	0.942428	0.940775	0.246564
	Zn12424	Zn	0.886577	0.680161	0.184215
	Zn12425	Zn	0.887229	0.825560	0.184191
	Zn12426	Zn	0.887302	0.180208	0.184239
	Zn12427	Zn	0.886498	0.325644	0.184204
	Zn12428	Zn	0.942343	0.680046	0.248319
	Zn12429	Zn	0.941969	0.825116	0.248347
	Zn12430	Zn	0.942060	0.180567	0.248333
	Zn12431	Zn	0.942271	0.325244	0.248330
	C12432	C	0.982137	0.753074	0.171999
	C12433	C	0.909205	0.751587	0.198072
	C12434	C	0.912789	0.751562	0.207472
	C12435	C	0.913366	0.689404	0.211939
	C12436	C	0.913589	0.813675	0.211906
	C12437	C	0.909184	0.254789	0.198080
	C12438	C	0.912812	0.254682	0.207482
	C12439	C	0.913891	0.192322	0.211879
	C12440	C	0.913355	0.316666	0.211963
	C12441	C	0.910151	0.750843	0.170901
	C12442	C	0.914899	0.750806	0.161651
	C12443	C	0.916371	0.813072	0.157265
	C12444	C	0.916241	0.688645	0.157225
	C12445	C	0.910021	0.254392	0.170900
	C12446	C	0.914909	0.254401	0.161660
	C12447	C	0.916206	0.316522	0.157232
	C12448	C	0.916494	0.192228	0.157276
	C12449	C	1.010644	0.043087	0.186802
	C12450	C	1.010669	0.962028	0.186801
	C12451	C	0.892161	0.043351	0.179625
	C12452	C	0.892146	0.962438	0.179591
	C12453	C	0.874640	0.043319	0.184766
	C12454	C	0.874583	0.962493	0.184745
	C12455	C	0.891122	0.462271	0.184713
	C12456	C	1.012444	0.462358	0.184480
	C12457	C	1.003907	0.462014	0.189133
	C12458	C	0.891114	0.543187	0.184705
	C12459	C	1.003882	0.542947	0.189136
	C12460	C	1.012426	0.543131	0.184486
	C12461	C	0.981552	0.753365	0.199150
	C12462	C	0.981461	0.252240	0.199119
	C12463	C	0.976568	0.753326	0.208378
	C12464	C	0.975107	0.691210	0.212779
	C12465	C	0.975154	0.815452	0.212793
	C12466	C	0.976412	0.252171	0.208333
	C12467	C	0.975008	0.190183	0.212744
	C12468	C	0.974873	0.314073	0.212745
	C12469	C	0.982309	0.251807	0.171991
	C12470	C	0.971703	0.753952	0.135590
	C12471	C	0.925919	0.751255	0.135005
	C12472	C	0.919683	0.752049	0.234458
	C12473	C	0.977892	0.691193	0.158122
	C12474	C	0.977602	0.815564	0.158174
	C12475	C	0.975426	0.753725	0.144982
	C12476	C	0.920781	0.750988	0.144216
	C12477	C	0.919212	0.688737	0.148601
	C12478	C	0.976269	0.691459	0.149406
	C12479	C	0.975977	0.815689	0.149459
	C12480	C	0.919318	0.813176	0.148642
	C12481	C	0.978576	0.753331	0.162595
	C12482	C	0.965425	0.753348	0.235019
	C12483	C	0.972073	0.691268	0.221400
	C12484	C	0.972109	0.815461	0.221414
	C12485	C	0.970563	0.753391	0.225813
	C12486	C	0.937339	0.462515	0.248944
	C12487	C	0.940987	0.462059	0.122202
	C12488	C	0.946260	0.462089	0.249754
	C12489	C	0.937372	0.543239	0.248941
	C12490	C	0.946271	0.543083	0.249729
	C12491	C	0.940980	0.543074	0.122194
	C12492	C	0.965430	0.252270	0.234988
	C12493	C	0.971972	0.190188	0.221368
	C12494	C	0.971838	0.314085	0.221370
	C12495	C	0.970428	0.252139	0.225773
	C12496	C	0.948466	0.043218	0.119447
	C12497	C	0.971717	0.251897	0.135615
	C12498	C	0.925868	0.254028	0.135008
	C12499	C	0.919721	0.253630	0.234474
	C12500	C	0.977794	0.189773	0.158165
	C12501	C	0.977847	0.313936	0.158147
	C12502	C	0.975389	0.251910	0.144995
	C12503	C	0.920689	0.254203	0.144214
	C12504	C	0.915993	0.751714	0.225088
	C12505	C	0.915248	0.813732	0.220615
	C12506	C	0.915028	0.689500	0.220655
	C12507	C	0.916022	0.254082	0.225088
	C12508	C	0.915048	0.316369	0.220677
	C12509	C	0.915522	0.192034	0.220592
	C12510	C	0.919480	0.192161	0.148650
	C12511	C	0.976072	0.189777	0.149455
	C12512	C	0.976139	0.313990	0.149432
	C12513	C	0.919190	0.316389	0.148606
	C12514	C	0.978640	0.251856	0.162609
	C12515	C	0.944995	0.043262	0.248614
	C12516	C	0.954263	0.042937	0.122724
	C12517	C	0.948458	0.962170	0.119474
	C12518	C	0.944927	0.962490	0.248617
	C12519	C	0.954264	0.962104	0.122705
	N12520	N	0.887258	0.069914	0.184228
	N12521	N	0.887248	0.935463	0.184188
	N12522	N	0.886485	0.435707	0.184193
	N12523	N	0.886526	0.570158	0.184194
	N12524	N	0.942295	0.435343	0.248335
	N12525	N	0.942347	0.569885	0.248317
	N12526	N	0.941948	0.070327	0.248306
	N12527	N	0.941885	0.935680	0.248327
	O12528	O	0.978545	0.693050	0.302097
	O12529	O	0.978087	0.809882	0.302186
	O12530	O	0.899838	0.694032	0.321066
	O12531	O	0.899719	0.810876	0.321102
	O12532	O	0.899698	0.195195	0.321109
	O12533	O	0.899913	0.311874	0.321104
	O12534	O	0.900352	0.694182	0.301091
	O12535	O	0.900246	0.810874	0.301024
	O12536	O	0.900097	0.194813	0.301049
	O12537	O	0.900104	0.311559	0.301016
	O12538	O	0.978115	0.693573	0.322177
	O12539	O	0.977899	0.810380	0.322092
	O12540	O	0.977988	0.194703	0.322130
	O12541	O	0.977923	0.311378	0.322112
	O12542	O	0.978247	0.195353	0.302169
	O12543	O	0.978715	0.311900	0.302090
	O12544	O	0.962824	0.694427	0.258541
	O12545	O	0.921803	0.693609	0.258203
	O12546	O	0.956794	0.694733	0.364999
	O12547	O	0.956328	0.811502	0.364962
	O12548	O	0.915978	0.693339	0.364539
	O12549	O	0.915519	0.809957	0.364651
	O12550	O	0.921460	0.810280	0.258192
	O12551	O	0.962233	0.811282	0.258629
	O12552	O	0.962328	0.194134	0.258599
	O12553	O	0.921617	0.194552	0.258186
	O12554	O	0.956377	0.193713	0.364935
	O12555	O	0.956826	0.310471	0.365021
	O12556	O	0.915310	0.195252	0.364689
	O12557	O	0.915794	0.312026	0.364566
	O12558	O	0.921653	0.311231	0.258181
	O12559	O	0.962693	0.310943	0.258549
	H12560	H	0.906217	0.642481	0.334933
	H12561	H	0.905570	0.862275	0.335048
	H12562	H	0.905757	0.143544	0.335037
	H12563	H	0.906067	0.363355	0.335015
	H12564	H	0.907908	0.861892	0.287319
	H12565	H	0.908260	0.642233	0.287403
	H12566	H	0.908008	0.362836	0.287350
	H12567	H	0.908222	0.143187	0.287414
	H12568	H	0.993377	0.064085	0.311095
	H12569	H	0.992907	0.064033	0.313198
	H12570	H	0.993000	0.940793	0.313138
	H12571	H	0.993409	0.940515	0.311097
	H12572	H	0.999843	0.064082	0.309937
	H12573	H	0.999805	0.940514	0.309962
	H12574	H	0.872367	0.064637	0.311875
	H12575	H	0.872468	0.941552	0.311866
	H12576	H	0.876988	0.065056	0.313653
	H12577	H	0.876937	0.940786	0.313624
	H12578	H	0.885359	0.064705	0.312752
	H12579	H	0.885348	0.941187	0.312718
	H12580	H	0.867731	0.441471	0.315357
	H12581	H	0.880777	0.441121	0.317305
	H12582	H	0.864276	0.441227	0.307936
	H12583	H	0.999959	0.440487	0.313239
	H12584	H	0.997447	0.440480	0.313013
	H12585	H	0.996908	0.440518	0.312303
	H12586	H	0.880668	0.564911	0.317339
	H12587	H	0.867590	0.564181	0.315367
	H12588	H	0.996847	0.564037	0.312309
	H12589	H	0.997499	0.563998	0.312985
	H12590	H	0.999931	0.563959	0.313266
	H12591	H	0.864288	0.565001	0.307894
	H12592	H	0.970324	0.642529	0.335853
	H12593	H	0.969668	0.862425	0.335704
	H12594	H	0.970109	0.142584	0.335751
	H12595	H	0.969928	0.362658	0.335806
	H12596	H	0.913940	0.641980	0.271894
	H12597	H	0.969141	0.642259	0.272422
	H12598	H	0.968252	0.862424	0.272550
	H12599	H	0.913599	0.861769	0.271807
	H12600	H	0.972867	0.641729	0.288103
	H12601	H	0.971923	0.861874	0.288263
	H12602	H	0.964649	0.643219	0.351362
	H12603	H	0.963930	0.862890	0.351220
	H12604	H	0.934575	0.441086	0.247913
	H12605	H	0.941537	0.440517	0.372186
	H12606	H	0.940544	0.440972	0.245293
	H12607	H	0.947003	0.441335	0.245892
	H12608	H	0.927678	0.440950	0.374383
	H12609	H	0.931593	0.440606	0.371973
	H12610	H	0.941582	0.564543	0.372166
	H12611	H	0.934519	0.564729	0.247925
	H12612	H	0.931479	0.564010	0.371971
	H12613	H	0.927716	0.564400	0.374389
	H12614	H	0.946996	0.564095	0.245843
	H12615	H	0.940520	0.564873	0.245262
	H12616	H	0.964362	0.142205	0.351267
	H12617	H	0.964267	0.362124	0.351330
	H12618	H	0.937839	0.064542	0.249009
	H12619	H	0.940671	0.064522	0.250028
	H12620	H	0.938934	0.064221	0.246978
	H12621	H	0.909230	0.861981	0.350725
	H12622	H	0.909957	0.642223	0.350616
	H12623	H	0.909750	0.363213	0.350692
	H12624	H	0.909387	0.143631	0.350731
	H12625	H	0.913909	0.142945	0.271905
	H12626	H	0.968194	0.143143	0.272551
	H12627	H	0.969137	0.362662	0.272438
	H12628	H	0.913764	0.362893	0.271858
	H12629	H	0.971796	0.143330	0.288227
	H12630	H	0.972766	0.363123	0.288148
	H12631	H	0.935000	0.064556	0.379652
	H12632	H	0.944699	0.064527	0.378338
	H12633	H	0.947067	0.064768	0.372894
	H12634	H	0.940624	0.940733	0.250027
	H12635	H	0.937766	0.940888	0.248996
	H12636	H	0.938921	0.940808	0.246999
	H12637	H	0.935121	0.941020	0.379622
	H12638	H	0.944654	0.940975	0.378307
	H12639	H	0.947137	0.941399	0.372896
	Zn12640	Zn	0.879264	0.680288	0.310813
	Zn12641	Zn	0.879473	0.825251	0.310851
	Zn12642	Zn	0.879333	0.180286	0.310863
	Zn12643	Zn	0.879395	0.325308	0.310819
	Zn12644	Zn	0.936211	0.680102	0.374828
	Zn12645	Zn	0.935933	0.825188	0.374845
	Zn12646	Zn	0.935984	0.180129	0.374849
	Zn12647	Zn	0.936239	0.325065	0.374850
	C12648	C	0.976169	0.751541	0.298555
	C12649	C	0.901978	0.752382	0.324661
	C12650	C	0.905782	0.752375	0.334045
	C12651	C	0.906924	0.690129	0.338449
	C12652	C	0.906538	0.814442	0.338510
	C12653	C	0.902030	0.253496	0.324687
	C12654	C	0.905899	0.253394	0.334059
	C12655	C	0.906709	0.191271	0.338512
	C12656	C	0.906903	0.315556	0.338495
	C12657	C	0.902920	0.752375	0.297547
	C12658	C	0.907971	0.752124	0.288322
	C12659	C	0.909331	0.814137	0.283894
	C12660	C	0.909517	0.689937	0.283936
	C12661	C	0.902831	0.253122	0.297549
	C12662	C	0.907988	0.253053	0.288337
	C12663	C	0.909457	0.315150	0.283925
	C12664	C	0.909567	0.190864	0.283953
	C12665	C	0.994621	0.042829	0.312185
	C12666	C	0.994644	0.962031	0.312167
	C12667	C	0.875896	0.043461	0.312274
	C12668	C	0.875942	0.962501	0.312250
	C12669	C	0.884286	0.043308	0.311357
	C12670	C	0.884289	0.962575	0.311356
	C12671	C	0.875574	0.462585	0.314875
	C12672	C	1.000223	0.461808	0.312855
	C12673	C	0.997722	0.461890	0.312602
	C12674	C	0.875510	0.543261	0.314893
	C12675	C	0.997709	0.542832	0.312594
	C12676	C	1.000218	0.542619	0.312843
	C12677	C	0.975318	0.752085	0.325627
	C12678	C	0.975299	0.253074	0.325611
	C12679	C	0.970255	0.752430	0.334827
	C12680	C	0.968893	0.690432	0.339271
	C12681	C	0.968523	0.814800	0.339185
	C12682	C	0.970149	0.252666	0.334814
	C12683	C	0.968692	0.190324	0.339202
	C12684	C	0.968622	0.314724	0.339234
	C12685	C	0.976242	0.253546	0.298541
	C12686	C	0.964733	0.752727	0.262162
	C12687	C	0.919005	0.751881	0.261685
	C12688	C	0.913475	0.751788	0.361015
	C12689	C	0.971737	0.689714	0.284653
	C12690	C	0.971236	0.814197	0.284735
	C12691	C	0.968651	0.752404	0.271535
	C12692	C	0.913934	0.751845	0.270892
	C12693	C	0.912559	0.689755	0.275320
	C12694	C	0.969836	0.689989	0.275943
	C12695	C	0.969338	0.814546	0.276016
	C12696	C	0.912377	0.814071	0.275276
	C12697	C	0.972310	0.751743	0.289147
	C12698	C	0.959194	0.753179	0.361480
	C12699	C	0.965853	0.690879	0.347889
	C12700	C	0.965467	0.815069	0.347805
	C12701	C	0.964175	0.753138	0.352251
	C12702	C	0.941477	0.462150	0.373840
	C12703	C	0.943381	0.462301	0.246311
	C12704	C	0.931391	0.462357	0.373623
	C12705	C	0.941457	0.543021	0.373826
	C12706	C	0.931415	0.543001	0.373611
	C12707	C	0.943371	0.543178	0.246295
	C12708	C	0.959193	0.252148	0.361473
	C12709	C	0.965643	0.190047	0.347823
	C12710	C	0.965593	0.314508	0.347855
	C12711	C	0.964160	0.252187	0.352240
	C12712	C	0.939979	0.043267	0.249213
	C12713	C	0.964760	0.252588	0.262150
	C12714	C	0.919026	0.252923	0.261691
	C12715	C	0.913361	0.253492	0.361043
	C12716	C	0.971203	0.191100	0.284724
	C12717	C	0.971724	0.315280	0.284677
	C12718	C	0.968646	0.252906	0.271532
	C12719	C	0.914130	0.252936	0.270917
	C12720	C	0.909575	0.752069	0.351644
	C12721	C	0.908460	0.814263	0.347221
	C12722	C	0.908863	0.690058	0.347157
	C12723	C	0.909593	0.253330	0.351652
	C12724	C	0.908778	0.315545	0.347203
	C12725	C	0.908579	0.191192	0.347227
	C12726	C	0.912638	0.190803	0.275335
	C12727	C	0.969265	0.190934	0.276015
	C12728	C	0.969809	0.315072	0.275959
	C12729	C	0.912550	0.315100	0.275312
	C12730	C	0.972379	0.253306	0.289157
	C12731	C	0.938888	0.043262	0.377887
	C12732	C	0.941097	0.043053	0.247180
	C12733	C	0.939954	0.962327	0.249219
	C12734	C	0.938883	0.962358	0.377888
	C12735	C	0.941028	0.962244	0.247198
	N12736	N	0.879373	0.070338	0.310860
	N12737	N	0.879438	0.935727	0.310856
	N12738	N	0.879256	0.435562	0.310815
	N12739	N	0.879235	0.570120	0.310816
	N12740	N	0.936364	0.435461	0.374897
	N12741	N	0.936355	0.570003	0.374904
	N12742	N	0.936111	0.069964	0.374858
	N12743	N	0.936118	0.935427	0.374851
	O12744	O	0.970821	0.693054	0.428694
	O12745	O	0.970149	0.809757	0.428779
	O12746	O	0.893909	0.694332	0.447611
	O12747	O	0.893994	0.811167	0.447656
	O12748	O	0.893690	0.194757	0.447665
	O12749	O	0.894196	0.311442	0.447542
	O12750	O	0.894318	0.694403	0.427537
	O12751	O	0.894026	0.811218	0.427450
	O12752	O	0.894212	0.194540	0.427494
	O12753	O	0.894080	0.311433	0.427489
	O12754	O	0.970441	0.693364	0.448982
	O12755	O	0.969778	0.810091	0.448803
	O12756	O	0.969820	0.195153	0.448816
	O12757	O	0.970441	0.311759	0.448941
	O12758	O	0.970230	0.195524	0.428762
	O12759	O	0.970765	0.312111	0.428699
	O12760	O	0.956437	0.695010	0.385099
	O12761	O	0.915481	0.693645	0.384615
	O12762	O	0.949273	0.695976	0.491820
	O12763	O	0.948768	0.812662	0.491707
	O12764	O	0.908267	0.692938	0.491219
	O12765	O	0.907788	0.809552	0.491261
	O12766	O	0.915221	0.810505	0.384605
	O12767	O	0.956119	0.811812	0.385195
	O12768	O	0.956158	0.193666	0.385175
	O12769	O	0.915280	0.195332	0.384635
	O12770	O	0.948704	0.193202	0.491699
	O12771	O	0.949430	0.310056	0.491814
	O12772	O	0.907626	0.195996	0.491259
	O12773	O	0.908500	0.312803	0.491192
	O12774	O	0.915192	0.312046	0.384573
	O12775	O	0.956437	0.310304	0.385141
	H12776	H	0.900027	0.642316	0.461490
	H12777	H	0.898879	0.861945	0.461685
	H12778	H	0.898946	0.143817	0.461648
	H12779	H	0.900298	0.363242	0.461496
	H12780	H	0.901458	0.862055	0.413710
	H12781	H	0.902139	0.642673	0.413860
	H12782	H	0.901990	0.363340	0.413816
	H12783	H	0.901682	0.143655	0.413775
	H12784	H	0.995156	0.064476	0.440725
	H12785	H	0.996727	0.063799	0.438697
	H12786	H	0.996652	0.940909	0.438701
	H12787	H	0.995124	0.940875	0.440695
	H12788	H	0.987992	0.064862	0.441342
	H12789	H	0.987943	0.940891	0.441311
	H12790	H	0.879774	0.064329	0.439729
	H12791	H	0.879758	0.941292	0.439712
	H12792	H	0.882076	0.064797	0.437104
	H12793	H	0.882147	0.940812	0.437073
	H12794	H	0.875822	0.064720	0.434108
	H12795	H	0.875687	0.941078	0.434082
	H12796	H	0.868218	0.441368	0.434597
	H12797	H	0.864904	0.441229	0.437146
	H12798	H	0.878299	0.441114	0.434495
	H12799	H	0.984122	0.440690	0.433969
	H12800	H	1.000621	0.441326	0.434958
	H12801	H	1.005202	0.441102	0.439384
	H12802	H	0.864830	0.564888	0.437145
	H12803	H	0.868152	0.564551	0.434605
	H12804	H	1.005262	0.564041	0.439449
	H12805	H	1.000609	0.564162	0.434987
	H12806	H	0.984267	0.564611	0.433946
	H12807	H	0.878258	0.564533	0.434474
	H12808	H	0.963119	0.642894	0.462706
	H12809	H	0.961767	0.862104	0.462416
	H12810	H	0.961780	0.143022	0.462450
	H12811	H	0.963372	0.362850	0.462733
	H12812	H	0.907781	0.642149	0.398324
	H12813	H	0.962515	0.642830	0.398992
	H12814	H	0.961322	0.862725	0.399167
	H12815	H	0.907008	0.861825	0.398203
	H12816	H	0.965503	0.641905	0.414701
	H12817	H	0.964314	0.861888	0.414876
	H12818	H	0.957343	0.643787	0.478208
	H12819	H	0.956049	0.863337	0.477920
	H12820	H	0.945135	0.441239	0.374751
	H12821	H	0.919165	0.441075	0.498583
	H12822	H	0.939784	0.441283	0.378069
	H12823	H	0.932494	0.441093	0.377924
	H12824	H	0.926907	0.441233	0.506211
	H12825	H	0.918530	0.440878	0.503979
	H12826	H	0.919249	0.564357	0.498612
	H12827	H	0.944947	0.564173	0.374762
	H12828	H	0.918515	0.564276	0.503986
	H12829	H	0.926882	0.564723	0.506180
	H12830	H	0.932532	0.564712	0.377890
	H12831	H	0.939762	0.564214	0.378055
	H12832	H	0.956121	0.142293	0.477969
	H12833	H	0.957769	0.361762	0.478263
	H12834	H	0.926028	0.064183	0.372012
	H12835	H	0.924389	0.064257	0.376001
	H12836	H	0.939226	0.064577	0.370259
	H12837	H	0.901769	0.861268	0.477378
	H12838	H	0.902989	0.641551	0.477202
	H12839	H	0.903334	0.363817	0.477176
	H12840	H	0.901965	0.144586	0.477367
	H12841	H	0.907284	0.144193	0.398266
	H12842	H	0.961083	0.142509	0.399161
	H12843	H	0.962483	0.362182	0.398983
	H12844	H	0.907582	0.363542	0.398303
	H12845	H	0.964036	0.143202	0.414859
	H12846	H	0.965539	0.363136	0.414678
	H12847	H	0.935807	0.064933	0.501302
	H12848	H	0.932472	0.064535	0.498966
	H12849	H	0.923250	0.064508	0.498820
	H12850	H	0.924411	0.940932	0.375985
	H12851	H	0.926137	0.940968	0.372029
	H12852	H	0.939226	0.941197	0.370214
	H12853	H	0.935803	0.941349	0.501335
	H12854	H	0.932494	0.941172	0.498993
	H12855	H	0.923381	0.941438	0.498853
	Zn12856	Zn	0.873592	0.680433	0.437352
	Zn12857	Zn	0.873677	0.825232	0.437391
	Zn12858	Zn	0.873651	0.180389	0.437322
	Zn12859	Zn	0.873566	0.325405	0.437391
	Zn12860	Zn	0.928547	0.680472	0.501583
	Zn12861	Zn	0.927895	0.825514	0.501513
	Zn12862	Zn	0.927804	0.180523	0.501515
	Zn12863	Zn	0.928611	0.325409	0.501545
	C12864	C	0.968362	0.751466	0.425142
	C12865	C	0.896050	0.752648	0.451220
	C12866	C	0.899542	0.752265	0.460626
	C12867	C	0.900528	0.689878	0.465029
	C12868	C	0.899900	0.814088	0.465134
	C12869	C	0.896042	0.253253	0.451195
	C12870	C	0.899560	0.253431	0.460601
	C12871	C	0.899940	0.191598	0.465111
	C12872	C	0.900659	0.315658	0.465008
	C12873	C	0.896769	0.752710	0.423992
	C12874	C	0.901583	0.752419	0.414734
	C12875	C	0.902866	0.814339	0.410290
	C12876	C	0.903252	0.690187	0.410370
	C12877	C	0.896696	0.253015	0.423997
	C12878	C	0.901597	0.253397	0.414769
	C12879	C	0.903154	0.315621	0.410367
	C12880	C	0.902981	0.191471	0.410347
	C12881	C	0.994423	0.043077	0.439522
	C12882	C	0.994419	0.962362	0.439527
	C12883	C	0.879029	0.043274	0.438129
	C12884	C	0.879067	0.962337	0.438115
	C12885	C	0.872633	0.043297	0.435126
	C12886	C	0.872614	0.962620	0.435126
	C12887	C	0.868411	0.462693	0.436286
	C12888	C	0.983250	0.462121	0.436660
	C12889	C	0.999745	0.462491	0.437676
	C12890	C	0.868419	0.543451	0.436272
	C12891	C	0.999749	0.543112	0.437691
	C12892	C	0.983281	0.543296	0.436664
	C12893	C	0.967486	0.751903	0.452396
	C12894	C	0.967543	0.253342	0.452387
	C12895	C	0.962483	0.752411	0.461619
	C12896	C	0.961433	0.690750	0.466099
	C12897	C	0.960677	0.814678	0.465927
	C12898	C	0.962625	0.252997	0.461619
	C12899	C	0.960758	0.190541	0.465936
	C12900	C	0.961662	0.314875	0.466109
	C12901	C	0.968410	0.253750	0.425136
	C12902	C	0.958368	0.753254	0.388729
	C12903	C	0.912672	0.752004	0.388091
	C12904	C	0.905930	0.751207	0.487644
	C12905	C	0.964486	0.689901	0.411242
	C12906	C	0.963817	0.814327	0.411344
	C12907	C	0.961876	0.752846	0.398132
	C12908	C	0.907532	0.751970	0.397299
	C12909	C	0.906238	0.689914	0.401741
	C12910	C	0.962949	0.690437	0.402521
	C12911	C	0.962297	0.814785	0.402626
	C12912	C	0.905852	0.814169	0.401669
	C12913	C	0.964844	0.751856	0.415741
	C12914	C	0.951612	0.754214	0.488267
	C12915	C	0.958390	0.691355	0.474717
	C12916	C	0.957644	0.815346	0.474548
	C12917	C	0.956521	0.753663	0.479056
	C12918	C	0.924938	0.462395	0.498724
	C12919	C	0.936180	0.462324	0.377168
	C12920	C	0.924265	0.462328	0.504157
	C12921	C	0.924940	0.543247	0.498738
	C12922	C	0.924251	0.543207	0.504156
	C12923	C	0.936175	0.543172	0.377149
	C12924	C	0.951714	0.251648	0.488270
	C12925	C	0.957778	0.190077	0.474560
	C12926	C	0.958684	0.314330	0.474733
	C12927	C	0.956731	0.251966	0.479051
	C12928	C	0.928102	0.043026	0.374229
	C12929	C	0.958339	0.252018	0.388759
	C12930	C	0.912580	0.253806	0.388106
	C12931	C	0.906003	0.254426	0.487638
	C12932	C	0.963698	0.190894	0.411350
	C12933	C	0.964513	0.315146	0.411248
	C12934	C	0.961843	0.252319	0.398149
	C12935	C	0.907491	0.253905	0.397328
	C12936	C	0.902419	0.751397	0.478255
	C12937	C	0.901393	0.813682	0.473853
	C12938	C	0.902060	0.689477	0.473749
	C12939	C	0.902477	0.254236	0.478236
	C12940	C	0.902213	0.316055	0.473727
	C12941	C	0.901441	0.192014	0.473833
	C12942	C	0.905972	0.191753	0.401725
	C12943	C	0.962120	0.190381	0.402631
	C12944	C	0.962921	0.314649	0.402535
	C12945	C	0.906153	0.315897	0.401745
	C12946	C	0.964864	0.253271	0.415753
	C12947	C	0.932439	0.043308	0.500493
	C12948	C	0.941286	0.043301	0.372428
	C12949	C	0.928100	0.962283	0.374233
	C12950	C	0.932465	0.962468	0.500517
	C12951	C	0.941290	0.962429	0.372432
	N12952	N	0.873680	0.070219	0.437325
	N12953	N	0.873692	0.935660	0.437340
	N12954	N	0.873622	0.435581	0.437364
	N12955	N	0.873619	0.570182	0.437349
	N12956	N	0.928593	0.435571	0.501578
	N12957	N	0.928599	0.570140	0.501580
	N12958	N	0.927753	0.070184	0.501484
	N12959	N	0.927826	0.935631	0.501480
	O12960	O	0.964363	0.695628	0.555292
	O12961	O	0.964783	0.812626	0.555284
	O12962	O	0.886205	0.695236	0.574261
	O12963	O	0.886171	0.812025	0.574233
	O12964	O	0.886089	0.194270	0.574258
	O12965	O	0.886211	0.310922	0.574292
	O12966	O	0.886567	0.694568	0.554268
	O12967	O	0.886413	0.811512	0.554239
	O12968	O	0.886416	0.194857	0.554195
	O12969	O	0.886522	0.311608	0.554250
	O12970	O	0.964042	0.695829	0.575189
	O12971	O	0.964454	0.812498	0.575255
	O12972	O	0.964646	0.193308	0.575311
	O12973	O	0.964058	0.310093	0.575189
	O12974	O	0.964903	0.192331	0.555273
	O12975	O	0.964327	0.309159	0.555306
	O12976	O	0.948807	0.696503	0.511748
	O12977	O	0.907947	0.693592	0.511438
	O12978	O	0.942828	0.694511	0.618062
	O12979	O	0.942900	0.811048	0.618141
	O12980	O	0.901939	0.695118	0.617769
	O12981	O	0.901894	0.811782	0.617776
	O12982	O	0.907393	0.810242	0.511302
	O12983	O	0.948186	0.813160	0.511832
	O12984	O	0.948359	0.193036	0.511734
	O12985	O	0.907394	0.196073	0.511337
	O12986	O	0.943120	0.194894	0.618175
	O12987	O	0.942575	0.311668	0.618010
	O12988	O	0.901965	0.193625	0.617770
	O12989	O	0.901874	0.310361	0.617792
	O12990	O	0.907769	0.312747	0.511386
	O12991	O	0.948771	0.309769	0.511776
	H12992	H	0.892023	0.643834	0.588185
	H12993	H	0.892164	0.863264	0.588160
	H12994	H	0.892690	0.142646	0.588138
	H12995	H	0.891567	0.362092	0.588257
	H12996	H	0.894454	0.862521	0.540563
	H12997	H	0.894467	0.642851	0.540635
	H12998	H	0.894388	0.363498	0.540636
	H12999	H	0.894239	0.143777	0.540487
	H13000	H	0.996970	0.064781	0.564925
	H13001	H	0.991463	0.064757	0.561657
	H13002	H	0.991493	0.941154	0.561604
	H13003	H	0.997139	0.941250	0.564907
	H13004	H	0.991188	0.064676	0.569704
	H13005	H	0.991098	0.941355	0.569676
	H13006	H	0.868011	0.064758	0.559904
	H13007	H	0.867916	0.940822	0.559936
	H13008	H	0.859163	0.064531	0.560609
	H13009	H	0.859314	0.941355	0.560620
	H13010	H	0.855452	0.064936	0.565238
	H13011	H	0.855446	0.941863	0.565213
	H13012	H	0.869558	0.441356	0.559018
	H13013	H	0.858384	0.441503	0.559577
	H13014	H	0.879189	0.441593	0.563831
	H13015	H	0.999637	0.440561	0.563447
	H13016	H	0.995009	0.440892	0.570351
	H13017	H	0.982123	0.441023	0.571612
	H13018	H	0.858495	0.564608	0.559561
	H13019	H	0.869546	0.564874	0.559005
	H13020	H	0.982171	0.564344	0.571599
	H13021	H	0.995032	0.564560	0.570334
	H13022	H	0.999738	0.564264	0.563430
	H13023	H	0.879187	0.565067	0.563835
	H13024	H	0.955032	0.644150	0.588725
	H13025	H	0.956707	0.863632	0.588930
	H13026	H	0.956793	0.142229	0.589011
	H13027	H	0.955384	0.361793	0.588762
	H13028	H	0.900152	0.642469	0.525135
	H13029	H	0.954966	0.645028	0.525677
	H13030	H	0.954396	0.864754	0.525784
	H13031	H	0.900156	0.862162	0.525059
	H13032	H	0.958596	0.644784	0.541364
	H13033	H	0.958054	0.864291	0.541461
	H13034	H	0.949458	0.643673	0.604237
	H13035	H	0.951186	0.863080	0.604466
	H13036	H	0.928081	0.441134	0.496852
	H13037	H	0.903627	0.440905	0.626753
	H13038	H	0.939584	0.441090	0.499882
	H13039	H	0.939124	0.441434	0.503816
	H13040	H	0.929447	0.441357	0.634908
	H13041	H	0.913537	0.441242	0.634468
	H13042	H	0.903532	0.564203	0.626755
	H13043	H	0.928056	0.564697	0.496873
	H13044	H	0.913609	0.564548	0.634463
	H13045	H	0.929503	0.564713	0.634865
	H13046	H	0.939080	0.564776	0.503845
	H13047	H	0.939586	0.564897	0.499893
	H13048	H	0.950951	0.142777	0.604518
	H13049	H	0.949604	0.362629	0.604242
	H13050	H	0.924302	0.064630	0.504338
	H13051	H	0.931120	0.064741	0.504408
	H13052	H	0.919838	0.064655	0.501102
	H13053	H	0.895747	0.863200	0.603857
	H13054	H	0.895629	0.643822	0.603855
	H13055	H	0.895254	0.361742	0.603943
	H13056	H	0.896412	0.142352	0.603850
	H13057	H	0.899983	0.144418	0.524986
	H13058	H	0.954965	0.140934	0.525640
	H13059	H	0.954325	0.360933	0.525709
	H13060	H	0.900053	0.364151	0.525118
	H13061	H	0.958748	0.140793	0.541353
	H13062	H	0.957989	0.360609	0.541382
	H13063	H	0.930649	0.064366	0.629865
	H13064	H	0.931225	0.064525	0.626750
	H13065	H	0.922313	0.064477	0.624253
	H13066	H	0.931091	0.941122	0.504408
	H13067	H	0.924344	0.941030	0.504310
	H13068	H	0.919862	0.941094	0.501069
	H13069	H	0.930619	0.941531	0.629857
	H13070	H	0.931229	0.941485	0.626733
	H13071	H	0.922315	0.941083	0.624257
	Zn13072	Zn	0.865778	0.680567	0.564029
	Zn13073	Zn	0.865570	0.825797	0.564048
	Zn13074	Zn	0.865693	0.180518	0.563993
	Zn13075	Zn	0.865770	0.325678	0.564023
	Zn13076	Zn	0.922484	0.680534	0.627941
	Zn13077	Zn	0.922552	0.825372	0.627991
	Zn13078	Zn	0.922579	0.180483	0.627983
	Zn13079	Zn	0.922292	0.325194	0.627968
	C13080	C	0.962342	0.754208	0.551722
	C13081	C	0.888346	0.753711	0.577827
	C13082	C	0.892124	0.753687	0.587207
	C13083	C	0.892973	0.691580	0.591661
	C13084	C	0.893059	0.815650	0.591650
	C13085	C	0.888307	0.252493	0.577873
	C13086	C	0.892124	0.252384	0.587250
	C13087	C	0.893361	0.190178	0.591659
	C13088	C	0.892753	0.314365	0.591728
	C13089	C	0.889114	0.753026	0.550766
	C13090	C	0.894306	0.752744	0.541555
	C13091	C	0.895807	0.814751	0.537128
	C13092	C	0.895787	0.690533	0.537171
	C13093	C	0.889108	0.253335	0.550724
	C13094	C	0.894183	0.253631	0.541511
	C13095	C	0.895730	0.315970	0.537163
	C13096	C	0.895662	0.191664	0.537071
	C13097	C	0.991955	0.043311	0.563884
	C13098	C	0.991991	0.962424	0.563867
	C13099	C	0.864145	0.043639	0.561245
	C13100	C	0.864122	0.962661	0.561260
	C13101	C	0.860441	0.043592	0.565896
	C13102	C	0.860378	0.962815	0.565889
	C13103	C	0.864474	0.462776	0.560531
	C13104	C	0.992311	0.462165	0.562571
	C13105	C	0.987580	0.462183	0.569531
	C13106	C	0.864503	0.543563	0.560524
	C13107	C	0.987606	0.543168	0.569525
	C13108	C	0.992307	0.543106	0.562567
	C13109	C	0.961467	0.754189	0.578697
	C13110	C	0.961583	0.251785	0.578733
	C13111	C	0.956231	0.753966	0.587887
	C13112	C	0.954171	0.691731	0.592222
	C13113	C	0.955116	0.815867	0.592343
	C13114	C	0.956230	0.251960	0.587932
	C13115	C	0.955032	0.190022	0.592407
	C13116	C	0.954291	0.314222	0.592255
	C13117	C	0.962356	0.250701	0.551716
	C13118	C	0.950711	0.754816	0.515379
	C13119	C	0.905111	0.752066	0.514875
	C13120	C	0.899643	0.753496	0.614196
	C13121	C	0.957623	0.692415	0.537891
	C13122	C	0.957357	0.816765	0.537942
	C13123	C	0.954718	0.754814	0.524752
	C13124	C	0.900265	0.752317	0.524116
	C13125	C	0.898843	0.690307	0.528558
	C13126	C	0.955725	0.692679	0.529176
	C13127	C	0.955424	0.816905	0.529231
	C13128	C	0.898862	0.814533	0.528510
	C13129	C	0.958365	0.754445	0.542354
	C13130	C	0.945439	0.752904	0.614581
	C13131	C	0.951191	0.691464	0.600846
	C13132	C	0.952107	0.815525	0.600966
	C13133	C	0.950252	0.753296	0.605327
	C13134	C	0.911624	0.462227	0.625136
	C13135	C	0.936528	0.462537	0.501779
	C13136	C	0.921716	0.462394	0.632891
	C13137	C	0.911656	0.543183	0.625134
	C13138	C	0.921762	0.543214	0.632897
	C13139	C	0.936505	0.543380	0.501779
	C13140	C	0.945402	0.253113	0.614590
	C13141	C	0.951996	0.190419	0.601032
	C13142	C	0.951264	0.314689	0.600872
	C13143	C	0.950246	0.252785	0.605365
	C13144	C	0.927709	0.043471	0.503602
	C13145	C	0.950756	0.251225	0.515341
	C13146	C	0.905050	0.254438	0.514871
	C13147	C	0.899682	0.252001	0.614214
	C13148	C	0.957718	0.188567	0.537855
	C13149	C	0.957275	0.312939	0.537889
	C13150	C	0.954661	0.250993	0.524717
	C13151	C	0.900179	0.254348	0.524096
	C13152	C	0.895745	0.753647	0.604813
	C13153	C	0.894928	0.815609	0.600362
	C13154	C	0.894813	0.691533	0.600373
	C13155	C	0.895847	0.251950	0.604847
	C13156	C	0.894651	0.314131	0.600439
	C13157	C	0.895290	0.190012	0.600373
	C13158	C	0.898674	0.191981	0.528449
	C13159	C	0.955764	0.188641	0.529141
	C13160	C	0.955396	0.313116	0.529178
	C13161	C	0.898750	0.316295	0.528538
	C13162	C	0.958404	0.250690	0.542326
	C13163	C	0.928716	0.043163	0.628215
	C13164	C	0.923179	0.043253	0.500364
	C13165	C	0.927714	0.962455	0.503606
	C13166	C	0.928695	0.962615	0.628206
	C13167	C	0.923229	0.962571	0.500361
	N13168	N	0.865709	0.070505	0.564018
	N13169	N	0.865649	0.935995	0.564040
	N13170	N	0.865811	0.435814	0.564052
	N13171	N	0.865829	0.570371	0.564037
	N13172	N	0.922294	0.435509	0.627937
	N13173	N	0.922319	0.570104	0.627922
	N13174	N	0.922449	0.070141	0.627988
	N13175	N	0.922408	0.935550	0.627995
	O13176	O	0.951288	0.694197	0.681993
	O13177	O	0.951428	0.811094	0.682009
	O13178	O	0.880532	0.695772	0.700707
	O13179	O	0.880039	0.812456	0.700756
	O13180	O	0.880134	0.193731	0.700716
	O13181	O	0.880682	0.310791	0.700666
	O13182	O	0.880601	0.695745	0.680608
	O13183	O	0.879919	0.812627	0.680489
	O13184	O	0.880166	0.193298	0.680576
	O13185	O	0.880526	0.309944	0.680606
	O13186	O	0.953735	0.693924	0.703238
	O13187	O	0.953702	0.810509	0.703250
	O13188	O	0.953686	0.193750	0.703209
	O13189	O	0.953498	0.310480	0.703227
	O13190	O	0.951347	0.194222	0.681998
	O13191	O	0.951198	0.311139	0.682034
	O13192	O	0.942681	0.694119	0.638213
	O13193	O	0.901716	0.694519	0.637712
	O13194	O	0.930027	0.693978	0.745709
	O13195	O	0.929867	0.810782	0.745675
	O13196	O	0.888947	0.694269	0.744499
	O13197	O	0.888546	0.811144	0.744585
	O13198	O	0.901481	0.811432	0.637666
	O13199	O	0.942954	0.810929	0.638179
	O13200	O	0.942977	0.195113	0.638181
	O13201	O	0.901742	0.193894	0.637711
	O13202	O	0.929811	0.194289	0.745666
	O13203	O	0.929878	0.311050	0.745618
	O13204	O	0.888630	0.194319	0.744523
	O13205	O	0.888896	0.311095	0.744479
	O13206	O	0.901649	0.310835	0.637749
	O13207	O	0.942733	0.311936	0.638212
	H13208	H	0.885455	0.644055	0.714703
	H13209	H	0.884241	0.863592	0.714834
	H13210	H	0.884355	0.142482	0.714748
	H13211	H	0.885002	0.362195	0.714639
	H13212	H	0.887254	0.863671	0.666755
	H13213	H	0.887864	0.643619	0.666882
	H13214	H	0.887964	0.361654	0.666890
	H13215	H	0.887575	0.141847	0.666828
	H13216	H	0.973599	0.064489	0.694659
	H13217	H	0.976221	0.064577	0.692941
	H13218	H	0.976197	0.941294	0.692972
	H13219	H	0.973541	0.940723	0.694675
	H13220	H	0.966663	0.064353	0.694440
	H13221	H	0.966611	0.940696	0.694450
	H13222	H	0.866029	0.064534	0.689839
	H13223	H	0.865995	0.941699	0.689835
	H13224	H	0.862384	0.065214	0.688103
	H13225	H	0.862364	0.941493	0.688089
	H13226	H	0.854722	0.065030	0.688557
	H13227	H	0.854786	0.940900	0.688588
	H13228	H	0.868276	0.441467	0.687363
	H13229	H	0.859259	0.441577	0.685967
	H13230	H	0.870531	0.441143	0.692541
	H13231	H	0.965840	0.441178	0.693933
	H13232	H	0.965572	0.440872	0.691408
	H13233	H	0.969380	0.440587	0.690463
	H13234	H	0.859213	0.565172	0.685986
	H13235	H	0.868253	0.564823	0.687393
	H13236	H	0.969343	0.564029	0.690435
	H13237	H	0.965430	0.564201	0.691400
	H13238	H	0.965927	0.564707	0.693952
	H13239	H	0.870452	0.564332	0.692515
	H13240	H	0.947412	0.642805	0.717004
	H13241	H	0.947422	0.861561	0.716995
	H13242	H	0.947570	0.142879	0.716941
	H13243	H	0.947429	0.361510	0.716931
	H13244	H	0.893525	0.643081	0.651348
	H13245	H	0.947388	0.642311	0.652242
	H13246	H	0.947430	0.862481	0.652189
	H13247	H	0.892972	0.863210	0.651236
	H13248	H	0.948443	0.642662	0.667968
	H13249	H	0.948452	0.862586	0.667935
	H13250	H	0.940442	0.642893	0.732431
	H13251	H	0.940470	0.861717	0.732412
	H13252	H	0.912133	0.440731	0.621540
	H13253	H	0.909481	0.441492	0.756198
	H13254	H	0.933803	0.440938	0.622105
	H13255	H	0.941165	0.441270	0.627769
	H13256	H	0.909146	0.440953	0.753968
	H13257	H	0.910884	0.441356	0.754903
	H13258	H	0.909476	0.564434	0.756227
	H13259	H	0.912130	0.564631	0.621532
	H13260	H	0.910837	0.564232	0.754883
	H13261	H	0.909130	0.564532	0.753998
	H13262	H	0.941176	0.564393	0.627741
	H13263	H	0.933850	0.564834	0.622115
	H13264	H	0.940423	0.142821	0.732339
	H13265	H	0.940311	0.361745	0.732340
	H13266	H	0.914393	0.064992	0.629837
	H13267	H	0.920977	0.064458	0.631634
	H13268	H	0.915186	0.064852	0.625547
	H13269	H	0.885239	0.862866	0.730569
	H13270	H	0.886400	0.643459	0.730432
	H13271	H	0.886062	0.362519	0.730354
	H13272	H	0.885409	0.142795	0.730469
	H13273	H	0.893270	0.142051	0.651296
	H13274	H	0.947545	0.143263	0.652152
	H13275	H	0.947406	0.363137	0.652228
	H13276	H	0.893684	0.361901	0.651371
	H13277	H	0.948433	0.142904	0.667888
	H13278	H	0.948342	0.362680	0.667953
	H13279	H	0.913355	0.064493	0.755938
	H13280	H	0.912798	0.064796	0.753867
	H13281	H	0.906283	0.064607	0.752747
	H13282	H	0.920891	0.940970	0.631657
	H13283	H	0.914353	0.941195	0.629824
	H13284	H	0.915198	0.941222	0.625558
	H13285	H	0.913373	0.941469	0.755930
	H13286	H	0.912769	0.940996	0.753884
	H13287	H	0.906320	0.941292	0.752744
	Zn13288	Zn	0.860163	0.680829	0.690463
	Zn13289	Zn	0.859621	0.825138	0.690464
	Zn13290	Zn	0.859646	0.180870	0.690460
	Zn13291	Zn	0.860221	0.325309	0.690468
	Zn13292	Zn	0.907754	0.680390	0.755140
	Zn13293	Zn	0.907719	0.825651	0.755125
	Zn13294	Zn	0.907614	0.180297	0.755109
	Zn13295	Zn	0.907888	0.325515	0.755079
	C13296	C	0.949958	0.752693	0.678351
	C13297	C	0.882172	0.754094	0.704350
	C13298	C	0.884751	0.753853	0.713807
	C13299	C	0.885351	0.691652	0.718223
	C13300	C	0.884712	0.815730	0.718292
	C13301	C	0.882187	0.252233	0.704297
	C13302	C	0.884864	0.252199	0.713738
	C13303	C	0.884891	0.190187	0.718226
	C13304	C	0.885184	0.314483	0.718162
	C13305	C	0.882784	0.754092	0.677045
	C13306	C	0.887567	0.753646	0.667785
	C13307	C	0.888777	0.815749	0.663341
	C13308	C	0.889111	0.691256	0.663404
	C13309	C	0.882909	0.251591	0.677073
	C13310	C	0.887701	0.251645	0.667825
	C13311	C	0.889197	0.313877	0.663427
	C13312	C	0.888954	0.189618	0.663386
	C13313	C	0.973658	0.043056	0.693498
	C13314	C	0.973641	0.962245	0.693489
	C13315	C	0.862964	0.043531	0.689366
	C13316	C	0.862973	0.962782	0.689369
	C13317	C	0.855290	0.043578	0.689828
	C13318	C	0.855307	0.962517	0.689851
	C13319	C	0.862820	0.462667	0.687676
	C13320	C	0.968478	0.462225	0.693883
	C13321	C	0.968124	0.462107	0.691358
	C13322	C	0.862774	0.543504	0.687685
	C13323	C	0.968086	0.542897	0.691364
	C13324	C	0.968483	0.543214	0.693896
	C13325	C	0.951845	0.752159	0.706811
	C13326	C	0.951770	0.252080	0.706778
	C13327	C	0.947552	0.752165	0.716061
	C13328	C	0.945911	0.690274	0.720431
	C13329	C	0.945929	0.814101	0.720427
	C13330	C	0.947552	0.252217	0.716013
	C13331	C	0.946023	0.190311	0.720372
	C13332	C	0.945900	0.314092	0.720378
	C13333	C	0.949956	0.252707	0.678363
	C13334	C	0.944668	0.752552	0.641806
	C13335	C	0.898811	0.752952	0.641159
	C13336	C	0.887386	0.752866	0.740898
	C13337	C	0.948092	0.690296	0.664445
	C13338	C	0.948120	0.814872	0.664421
	C13339	C	0.947371	0.752457	0.651239
	C13340	C	0.893541	0.753113	0.650357
	C13341	C	0.892104	0.690933	0.654773
	C13342	C	0.947682	0.690256	0.655715
	C13343	C	0.947702	0.814699	0.655690
	C13344	C	0.891803	0.815479	0.654719
	C13345	C	0.948094	0.752632	0.668882
	C13346	C	0.933304	0.752384	0.742335
	C13347	C	0.942088	0.690347	0.728987
	C13348	C	0.942137	0.814237	0.728983
	C13349	C	0.939989	0.752350	0.733317
	C13350	C	0.907951	0.462462	0.755978
	C13351	C	0.933473	0.462465	0.625705
	C13352	C	0.909333	0.462406	0.754611
	C13353	C	0.907917	0.543350	0.756001
	C13354	C	0.909318	0.543403	0.754630
	C13355	C	0.933502	0.543305	0.625698
	C13356	C	0.933196	0.252520	0.742279
	C13357	C	0.942153	0.190303	0.728922
	C13358	C	0.942035	0.314208	0.728926
	C13359	C	0.939980	0.252220	0.733265
	C13360	C	0.918928	0.043435	0.630007
	C13361	C	0.944737	0.253526	0.641804
	C13362	C	0.898977	0.252246	0.641205
	C13363	C	0.887405	0.252663	0.740844
	C13364	C	0.948090	0.190734	0.664402
	C13365	C	0.948051	0.314984	0.664439
	C13366	C	0.947452	0.253222	0.651231
	C13367	C	0.893692	0.252036	0.650390
	C13368	C	0.885446	0.753158	0.731450
	C13369	C	0.885116	0.815437	0.727025
	C13370	C	0.885743	0.691272	0.726953
	C13371	C	0.885398	0.252624	0.731393
	C13372	C	0.885540	0.314632	0.726896
	C13373	C	0.885271	0.190428	0.726961
	C13374	C	0.891990	0.189784	0.654763
	C13375	C	0.947716	0.190980	0.655667
	C13376	C	0.947654	0.315247	0.655704
	C13377	C	0.892237	0.314061	0.654808
	C13378	C	0.948053	0.252750	0.668891
	C13379	C	0.911583	0.043460	0.754941
	C13380	C	0.919745	0.043379	0.625707
	C13381	C	0.918919	0.962448	0.630003
	C13382	C	0.911575	0.962527	0.754952
	C13383	C	0.919731	0.962515	0.625708
	N13384	N	0.859529	0.070250	0.690480
	N13385	N	0.859549	0.935573	0.690478
	N13386	N	0.860163	0.435841	0.690467
	N13387	N	0.860154	0.570462	0.690478
	N13388	N	0.907683	0.435717	0.755117
	N13389	N	0.907623	0.570271	0.755152
	N13390	N	0.907533	0.070023	0.755089
	N13391	N	0.907520	0.935562	0.755100
	O13392	O	1.006975	0.695140	0.796938
	O13393	O	1.007033	0.811256	0.796916
	O13394	O	0.870471	0.694448	0.826291
	O13395	O	0.870546	0.810674	0.826230
	O13396	O	0.870408	0.194965	0.826285
	O13397	O	0.870239	0.311314	0.826319
	O13398	O	0.867621	0.694028	0.808234
	O13399	O	0.867710	0.810892	0.808224
	O13400	O	0.867726	0.195005	0.808211
	O13401	O	0.867488	0.311774	0.808180
	O13402	O	1.009678	0.694623	0.815011
	O13403	O	1.009910	0.811430	0.815039
	O13404	O	1.009818	0.194560	0.815006
	O13405	O	1.009701	0.311166	0.814957
	O13406	O	1.007127	0.194529	0.796903
	O13407	O	1.006991	0.311010	0.796929
	O13408	O	0.932631	0.694810	0.763779
	O13409	O	0.891046	0.694640	0.765755
	O13410	O	0.986461	0.695160	0.857504
	O13411	O	0.986305	0.811564	0.857490
	O13412	O	0.944913	0.694585	0.859412
	O13413	O	0.944719	0.810926	0.859459
	O13414	O	0.891149	0.811186	0.765768
	O13415	O	0.932715	0.811052	0.763728
	O13416	O	0.932667	0.194551	0.763765
	O13417	O	0.891183	0.194986	0.765732
	O13418	O	0.986162	0.194924	0.857462
	O13419	O	0.986022	0.311457	0.857421
	O13420	O	0.944781	0.195163	0.859456
	O13421	O	0.944795	0.311461	0.859488
	O13422	O	0.891269	0.311428	0.765727
	O13423	O	0.932623	0.310875	0.763804
	H13424	H	0.894719	0.644362	0.836845
	H13425	H	0.894644	0.860846	0.836814
	H13426	H	0.894482	0.145129	0.836793
	H13427	H	0.894516	0.361545	0.836818
	H13428	H	0.877745	0.862077	0.794932
	H13429	H	0.877963	0.642882	0.794920
	H13430	H	0.877892	0.363086	0.794857
	H13431	H	0.878049	0.143730	0.794937
	H13432	H	1.030787	0.064424	0.805758
	H13433	H	1.031678	0.064464	0.806040
	H13434	H	1.031666	0.941411	0.806052
	H13435	H	1.030790	0.941014	0.805743
	H13436	H	1.031095	0.064303	0.805162
	H13437	H	1.031017	0.941118	0.805182
	H13438	H	0.861648	0.064608	0.814748
	H13439	H	0.861772	0.941358	0.814759
	H13440	H	0.850056	0.064225	0.810808
	H13441	H	0.850087	0.940997	0.810769
	H13442	H	0.830654	0.064091	0.813455
	H13443	H	0.830583	0.940790	0.813480
	H13444	H	0.845038	0.441165	0.822486
	H13445	H	0.854316	0.440949	0.820863
	H13446	H	0.833658	0.441279	0.819155
	H13447	H	1.022223	0.441535	0.803064
	H13448	H	1.034456	0.441159	0.801209
	H13449	H	1.042042	0.440695	0.803554
	H13450	H	0.854456	0.564088	0.820856
	H13451	H	0.845181	0.564122	0.822535
	H13452	H	1.042087	0.564665	0.803532
	H13453	H	1.034508	0.564218	0.801183
	H13454	H	1.022265	0.565183	0.803018
	H13455	H	0.833617	0.564864	0.819194
	H13456	H	0.999210	0.643692	0.828313
	H13457	H	0.999312	0.862589	0.828246
	H13458	H	0.999643	0.143754	0.828370
	H13459	H	0.999097	0.362455	0.828269
	H13460	H	0.884817	0.643381	0.779487
	H13461	H	0.956656	0.645183	0.774374
	H13462	H	0.956893	0.861113	0.774242
	H13463	H	0.884603	0.862318	0.779513
	H13464	H	0.983037	0.645247	0.786383
	H13465	H	0.983222	0.861241	0.786258
	H13466	H	0.992259	0.643938	0.843723
	H13467	H	0.992382	0.862934	0.843685
	H13468	H	0.906746	0.440942	0.756313
	H13469	H	0.974060	0.440920	0.870345
	H13470	H	0.904469	0.440947	0.755153
	H13471	H	0.905548	0.440912	0.754171
	H13472	H	0.972489	0.440843	0.865682
	H13473	H	0.976389	0.440901	0.867370
	H13474	H	0.974041	0.564361	0.870346
	H13475	H	0.906700	0.565118	0.756363
	H13476	H	0.976402	0.564369	0.867348
	H13477	H	0.972473	0.564244	0.865651
	H13478	H	0.905367	0.564434	0.754218
	H13479	H	0.904461	0.564534	0.755190
	H13480	H	0.992603	0.143895	0.843754
	H13481	H	0.991901	0.362518	0.843663
	H13482	H	0.903028	0.065255	0.756673
	H13483	H	0.907738	0.064620	0.757505
	H13484	H	0.902202	0.064889	0.753880
	H13485	H	0.920908	0.860887	0.848852
	H13486	H	0.920853	0.644614	0.848887
	H13487	H	0.920704	0.361634	0.848876
	H13488	H	0.920713	0.145126	0.848850
	H13489	H	0.885125	0.143682	0.779549
	H13490	H	0.956887	0.144381	0.774239
	H13491	H	0.956528	0.360884	0.774387
	H13492	H	0.884940	0.362666	0.779454
	H13493	H	0.983277	0.144239	0.786244
	H13494	H	0.982919	0.360875	0.786392
	H13495	H	0.977225	0.064406	0.865763
	H13496	H	0.969858	0.064076	0.864356
	H13497	H	0.960796	0.064350	0.866765
	H13498	H	0.907768	0.941764	0.757481
	H13499	H	0.903008	0.940988	0.756697
	H13500	H	0.902211	0.941444	0.753891
	H13501	H	0.976998	0.940781	0.865789
	H13502	H	0.969839	0.940772	0.864423
	H13503	H	0.960829	0.941105	0.866774
	Zn13504	Zn	0.845362	0.680291	0.817658
	Zn13505	Zn	0.845512	0.825489	0.817653
	Zn13506	Zn	0.845553	0.180225	0.817659
	Zn13507	Zn	0.845348	0.325285	0.817676
	Zn13508	Zn	0.969778	0.680162	0.868117
	Zn13509	Zn	0.969594	0.825270	0.868142
	Zn13510	Zn	0.969703	0.180366	0.868114
	Zn13511	Zn	0.969823	0.325233	0.868144
	C13512	C	1.000581	0.753211	0.794242
	C13513	C	0.876893	0.752585	0.828962
	C13514	C	0.893008	0.752689	0.836097
	C13515	C	0.900468	0.691531	0.839516
	C13516	C	0.900450	0.813914	0.839489
	C13517	C	0.876720	0.253204	0.828988
	C13518	C	0.892933	0.253374	0.836107
	C13519	C	0.900315	0.192078	0.839509
	C13520	C	0.900338	0.314593	0.839521
	C13521	C	0.870917	0.752417	0.804865
	C13522	C	0.877535	0.752359	0.795842
	C13523	C	0.879503	0.814545	0.791505
	C13524	C	0.879648	0.690470	0.791497
	C13525	C	0.870899	0.253439	0.804823
	C13526	C	0.877506	0.253511	0.795813
	C13527	C	0.879528	0.315468	0.791453
	C13528	C	0.879627	0.191320	0.791498
	C13529	C	1.031484	0.043106	0.805803
	C13530	C	1.031505	0.962441	0.805805
	C13531	C	0.853091	0.043045	0.814049
	C13532	C	0.853100	0.962386	0.814046
	C13533	C	0.833545	0.043149	0.816726
	C13534	C	0.833501	0.962238	0.816722
	C13535	C	0.848445	0.462474	0.820644
	C13536	C	1.024427	0.462650	0.805127
	C13537	C	1.036666	0.462382	0.803222
	C13538	C	0.848492	0.543161	0.820636
	C13539	C	1.036659	0.543244	0.803204
	C13540	C	1.024384	0.543692	0.805121
	C13541	C	1.006394	0.753033	0.818371
	C13542	C	1.006440	0.252938	0.818358
	C13543	C	0.999665	0.753121	0.827391
	C13544	C	0.997563	0.691237	0.831735
	C13545	C	0.997616	0.815248	0.831710
	C13546	C	0.999843	0.253040	0.827393
	C13547	C	0.997857	0.191280	0.831764
	C13548	C	0.997519	0.314975	0.831709
	C13549	C	1.000710	0.252728	0.794213
	C13550	C	0.939083	0.752976	0.766439
	C13551	C	0.889139	0.752925	0.769318
	C13552	C	0.938415	0.752725	0.856745
	C13553	C	0.977195	0.692122	0.783688
	C13554	C	0.977305	0.814313	0.783611
	C13555	C	0.955261	0.753145	0.773558
	C13556	C	0.884878	0.752799	0.778572
	C13557	C	0.883375	0.690786	0.782939
	C13558	C	0.962622	0.692114	0.777011
	C13559	C	0.962754	0.814228	0.776925
	C13560	C	0.883216	0.814720	0.782946
	C13561	C	0.984595	0.753247	0.787080
	C13562	C	0.988161	0.753356	0.853916
	C13563	C	0.993867	0.691471	0.840298
	C13564	C	0.993890	0.815306	0.840273
	C13565	C	0.992339	0.753487	0.844666
	C13566	C	0.970918	0.462283	0.869937
	C13567	C	0.905612	0.462405	0.754793
	C13568	C	0.973311	0.462157	0.866944
	C13569	C	0.970913	0.543216	0.869923
	C13570	C	0.973300	0.543021	0.866944
	C13571	C	0.905581	0.543053	0.754800
	C13572	C	0.987986	0.253145	0.853884
	C13573	C	0.994043	0.191298	0.840318
	C13574	C	0.993662	0.315012	0.840263
	C13575	C	0.992264	0.253155	0.844660
	C13576	C	0.905897	0.043548	0.756554
	C13577	C	0.939043	0.252666	0.766461
	C13578	C	0.889382	0.253219	0.769309
	C13579	C	0.938369	0.253344	0.856784
	C13580	C	0.977308	0.191277	0.783601
	C13581	C	0.977100	0.313900	0.783689
	C13582	C	0.955198	0.252658	0.773569
	C13583	C	0.884987	0.253209	0.778552
	C13584	C	0.922322	0.752770	0.849608
	C13585	C	0.914983	0.813980	0.846182
	C13586	C	0.915003	0.691499	0.846197
	C13587	C	0.922264	0.253384	0.849639
	C13588	C	0.914918	0.314564	0.846203
	C13589	C	0.914895	0.192147	0.846187
	C13590	C	0.883467	0.191285	0.782948
	C13591	C	0.962695	0.191386	0.776935
	C13592	C	0.962475	0.313887	0.777024
	C13593	C	0.883389	0.315188	0.782905
	C13594	C	0.984593	0.252575	0.787065
	C13595	C	0.972602	0.042975	0.865881
	C13596	C	0.905070	0.043187	0.753784
	C13597	C	0.905887	0.962498	0.756565
	C13598	C	0.972537	0.962009	0.865903
	C13599	C	0.905083	0.962631	0.753772
	N13600	N	0.845411	0.070048	0.817616
	N13601	N	0.845420	0.935513	0.817625
	N13602	N	0.845049	0.435500	0.817670
	N13603	N	0.845085	0.570077	0.817669
	N13604	N	0.969975	0.435376	0.868151
	N13605	N	0.969972	0.569958	0.868110
	N13606	N	0.969881	0.070132	0.868128
	N13607	N	0.969808	0.935573	0.868152
	O13608	O	0.997379	0.693623	0.922508
	O13609	O	0.996874	0.810282	0.922548
	O13610	O	0.926349	0.694276	0.941208
	O13611	O	0.926506	0.811185	0.941196
	O13612	O	0.926290	0.194350	0.941239
	O13613	O	0.926324	0.311206	0.941213
	O13614	O	0.923845	0.694354	0.919969
	O13615	O	0.923718	0.810894	0.919906
	O13616	O	0.923656	0.194277	0.919941
	O13617	O	0.924250	0.310877	0.920010
	O13618	O	0.997082	0.693640	0.942662
	O13619	O	0.997008	0.810264	0.942665
	O13620	O	0.996948	0.195098	0.942623
	O13621	O	0.997267	0.311719	0.942671
	O13622	O	0.996881	0.194826	0.922559
	O13623	O	0.997274	0.311468	0.922577
	O13624	O	0.988684	0.694679	0.878724
	O13625	O	0.947561	0.693758	0.877532
	O13626	O	0.975953	0.694574	0.985597
	O13627	O	0.975541	0.811363	0.985458
	O13628	O	0.934646	0.694302	0.984995
	O13629	O	0.934396	0.811085	0.985053
	O13630	O	0.947266	0.810664	0.877470
	O13631	O	0.988546	0.811501	0.878754
	O13632	O	0.988611	0.194156	0.878761
	O13633	O	0.947383	0.194452	0.877448
	O13634	O	0.975912	0.194626	0.985486
	O13635	O	0.975878	0.311424	0.985525
	O13636	O	0.934565	0.194241	0.985029
	O13637	O	0.934499	0.311076	0.985034
	O13638	O	0.947539	0.311105	0.877494
	O13639	O	0.988734	0.310928	0.878705
	H13640	H	0.929540	0.642987	0.955252
	H13641	H	0.929369	0.862846	0.955265
	H13642	H	0.929067	0.142803	0.955302
	H13643	H	0.929504	0.362463	0.955223
	H13644	H	0.929116	0.861245	0.906124
	H13645	H	0.930543	0.642548	0.906234
	H13646	H	0.930712	0.362220	0.906275
	H13647	H	0.929603	0.143169	0.906189
	H13648	H	1.016663	0.064602	0.933359
	H13649	H	1.018230	0.064549	0.933423
	H13650	H	1.018124	0.940885	0.933444
	H13651	H	1.016553	0.940771	0.933359
	H13652	H	1.015732	0.064315	0.932607
	H13653	H	1.015651	0.940311	0.932646
	H13654	H	0.913724	0.065015	0.931323
	H13655	H	0.913866	0.941806	0.931283
	H13656	H	0.912910	0.064526	0.929262
	H13657	H	0.912871	0.941769	0.929167
	H13658	H	0.905886	0.065004	0.928093
	H13659	H	0.905841	0.941380	0.928070
	H13660	H	0.915796	0.441531	0.933523
	H13661	H	0.918317	0.441695	0.930002
	H13662	H	0.903554	0.441061	0.934680
	H13663	H	1.019661	0.441390	0.928061
	H13664	H	1.029689	0.441348	0.931947
	H13665	H	1.027236	0.441303	0.935807
	H13666	H	0.918194	0.564981	0.930004
	H13667	H	0.915855	0.565112	0.933524
	H13668	H	1.027120	0.564770	0.935839
	H13669	H	1.029632	0.564432	0.931984
	H13670	H	1.019585	0.564545	0.928064
	H13671	H	0.903453	0.564828	0.934716
	H13672	H	0.989637	0.642160	0.956378
	H13673	H	0.989443	0.861745	0.956313
	H13674	H	0.989344	0.143344	0.956326
	H13675	H	0.989907	0.363136	0.956393
	H13676	H	0.937620	0.642327	0.890832
	H13677	H	0.991940	0.642857	0.892785
	H13678	H	0.991260	0.862639	0.892843
	H13679	H	0.936263	0.861485	0.890687
	H13680	H	0.992961	0.642605	0.908533
	H13681	H	0.992299	0.862254	0.908560
	H13682	H	0.983963	0.642670	0.971925
	H13683	H	0.983765	0.862204	0.971805
	H13684	H	0.968408	0.440752	0.870773
	H13685	H	0.965827	0.441417	0.992065
	H13686	H	0.963017	0.441266	0.868478
	H13687	H	0.964758	0.441168	0.866251
	H13688	H	0.942315	0.441163	0.992981
	H13689	H	0.950855	0.441273	0.989998
	H13690	H	0.965825	0.564748	0.992111
	H13691	H	0.968394	0.564143	0.870765
	H13692	H	0.950823	0.564632	0.990024
	H13693	H	0.942290	0.564730	0.992963
	H13694	H	0.964836	0.564401	0.866255
	H13695	H	0.963095	0.564506	0.868450
	H13696	H	0.983795	0.143148	0.971855
	H13697	H	0.984256	0.362957	0.971913
	H13698	H	0.971537	0.064760	0.871870
	H13699	H	0.978138	0.064797	0.870131
	H13700	H	0.961492	0.064630	0.869952
	H13701	H	0.930132	0.862948	0.970990
	H13702	H	0.930343	0.642831	0.970984
	H13703	H	0.930457	0.362656	0.970974
	H13704	H	0.930058	0.142884	0.971020
	H13705	H	0.936576	0.143132	0.890767
	H13706	H	0.991224	0.143071	0.892833
	H13707	H	0.991849	0.362773	0.892798
	H13708	H	0.937631	0.362344	0.890854
	H13709	H	0.992168	0.143293	0.908527
	H13710	H	0.992812	0.363041	0.908517
	H13711	H	0.946754	0.064736	0.999005
	H13712	H	0.957090	0.064808	1.000181
	H13713	H	0.967468	0.064650	0.996196
	H13714	H	0.977962	0.941204	0.870106
	H13715	H	0.971441	0.941334	0.871832
	H13716	H	0.961545	0.941209	0.869955
	H13717	H	0.946744	0.941395	0.998994
	H13718	H	0.957137	0.941134	1.000246
	H13719	H	0.967532	0.941147	0.996210
	Zn13720	Zn	0.907232	0.680580	0.930609
	Zn13721	Zn	0.907465	0.825600	0.930602
	Zn13722	Zn	0.907290	0.180689	0.930614
	Zn13723	Zn	0.907488	0.325595	0.930579
	Zn13724	Zn	0.954838	0.680469	0.995268
	Zn13725	Zn	0.954926	0.825562	0.995230
	Zn13726	Zn	0.954921	0.180328	0.995236
	Zn13727	Zn	0.954891	0.325606	0.995223
	C13728	C	0.995244	0.752011	0.918915
	C13729	C	0.927728	0.752729	0.944855
	C13730	C	0.929650	0.752884	0.954326
	C13731	C	0.929779	0.690647	0.958767
	C13732	C	0.929629	0.815100	0.958778
	C13733	C	0.927622	0.252789	0.944875
	C13734	C	0.929490	0.252695	0.954329
	C13735	C	0.929474	0.190541	0.958793
	C13736	C	0.929700	0.314922	0.958754
	C13737	C	0.925640	0.752466	0.916374
	C13738	C	0.929914	0.751998	0.907121
	C13739	C	0.931087	0.813800	0.902708
	C13740	C	0.931847	0.689970	0.902782
	C13741	C	0.925771	0.252665	0.916407
	C13742	C	0.930027	0.252714	0.907156
	C13743	C	0.931984	0.314742	0.902815
	C13744	C	0.931357	0.190709	0.902760
	C13745	C	1.017445	0.043108	0.933235
	C13746	C	1.017393	0.962268	0.933239
	C13747	C	0.911818	0.043509	0.930372
	C13748	C	0.911860	0.962873	0.930349
	C13749	C	0.904825	0.043584	0.929263
	C13750	C	0.904812	0.962661	0.929254
	C13751	C	0.914539	0.462753	0.931451
	C13752	C	1.015567	0.462554	0.929677
	C13753	C	1.025600	0.462476	0.933580
	C13754	C	0.914510	0.543586	0.931458
	C13755	C	1.025598	0.543213	0.933581
	C13756	C	1.015562	0.543437	0.929664
	C13757	C	0.994535	0.751907	0.946178
	C13758	C	0.994605	0.253378	0.946162
	C13759	C	0.989670	0.751865	0.955399
	C13760	C	0.988282	0.689896	0.959829
	C13761	C	0.988169	0.814093	0.959779
	C13762	C	0.989746	0.253237	0.955410
	C13763	C	0.988168	0.191041	0.959793
	C13764	C	0.988448	0.315348	0.959830
	C13765	C	0.995194	0.253262	0.918941
	C13766	C	0.989871	0.753057	0.882391
	C13767	C	0.944103	0.752206	0.880858
	C13768	C	0.932715	0.752746	0.981405
	C13769	C	0.992499	0.690319	0.905029
	C13770	C	0.992148	0.814565	0.905046
	C13771	C	0.991771	0.752778	0.891839
	C13772	C	0.937389	0.751932	0.889859
	C13773	C	0.935612	0.689855	0.894227
	C13774	C	0.992038	0.690596	0.896294
	C13775	C	0.991703	0.814740	0.896316
	C13776	C	0.934840	0.813931	0.894147
	C13777	C	0.992502	0.752316	0.909482
	C13778	C	0.978461	0.752796	0.982036
	C13779	C	0.985296	0.690236	0.968458
	C13780	C	0.985180	0.814314	0.968400
	C13781	C	0.983749	0.752386	0.972841
	C13782	C	0.963849	0.462602	0.994561
	C13783	C	0.965527	0.462317	0.867574
	C13784	C	0.948745	0.462674	0.992478
	C13785	C	0.963814	0.543482	0.994575
	C13786	C	0.948792	0.543395	0.992483
	C13787	C	0.965540	0.543006	0.867565
	C13788	C	0.978618	0.253106	0.982029
	C13789	C	0.985167	0.190948	0.968415
	C13790	C	0.985405	0.315267	0.968454
	C13791	C	0.983822	0.253038	0.972839
	C13792	C	0.973570	0.043276	0.870240
	C13793	C	0.989933	0.252645	0.882392
	C13794	C	0.944157	0.252748	0.880843
	C13795	C	0.932718	0.252687	0.981422
	C13796	C	0.992000	0.191044	0.905038
	C13797	C	0.992384	0.315195	0.905034
	C13798	C	0.991782	0.252887	0.891842
	C13799	C	0.937477	0.252747	0.889875
	C13800	C	0.930096	0.752872	0.971976
	C13801	C	0.929946	0.815062	0.967512
	C13802	C	0.930068	0.690734	0.967499
	C13803	C	0.930073	0.252825	0.971969
	C13804	C	0.930034	0.314928	0.967485
	C13805	C	0.929828	0.190661	0.967524
	C13806	C	0.935112	0.190710	0.894198
	C13807	C	0.991640	0.190890	0.896309
	C13808	C	0.991989	0.315082	0.896298
	C13809	C	0.935729	0.314764	0.894253
	C13810	C	0.992419	0.253163	0.909502
	C13811	C	0.952709	0.043296	0.998456
	C13812	C	0.963511	0.043320	0.868307
	C13813	C	0.973514	0.962486	0.870229
	C13814	C	0.952682	0.962583	0.998465
	C13815	C	0.963526	0.962536	0.868305
	N13816	N	0.907606	0.070451	0.930621
	N13817	N	0.907641	0.935873	0.930590
	N13818	N	0.907493	0.435699	0.930604
	N13819	N	0.907454	0.570280	0.930623
	N13820	N	0.954850	0.435592	0.995218
	N13821	N	0.954816	0.570119	0.995251
	N13822	N	0.954937	0.070261	0.995194
	N13823	N	0.954965	0.935767	0.995221
